lig_40
                    3D
 Schrodinger Suite 2022-3.
 55 59  0  0  1  0            999 V2000
   -2.1629   14.4632   -7.7736 H   0  0  0  0  0  0
   -1.6358   13.6804   -7.2468 C   0  0  0  0  0  0
   -0.4242   13.9183   -6.7602 N   0  0  0  0  0  0
   -0.0745   12.7682   -6.1303 N   0  0  0  0  0  0
    1.1739   12.6893   -5.4058 C   0  0  0  0  0  0
    1.3405   11.6624   -5.0598 H   0  0  0  0  0  0
    2.0071   12.9749   -6.0470 H   0  0  0  0  0  0
    1.1432   13.3640   -4.5458 H   0  0  0  0  0  0
   -1.0394   11.7936   -6.2530 C   0  0  0  0  0  0
   -0.9271   10.8145   -5.8143 H   0  0  0  0  0  0
   -2.0646   12.3553   -6.9521 C   0  0  0  0  0  0
   -3.3612   11.7367   -7.2677 C   0  0  0  0  0  0
   -3.4353   10.4402   -7.8240 C   0  0  0  0  0  0
   -2.5291    9.8930   -8.0497 H   0  0  0  0  0  0
   -4.6843    9.8342   -8.0582 C   0  0  0  0  0  0
   -4.7212    8.8327   -8.4668 H   0  0  0  0  0  0
   -5.8788   10.5137   -7.7409 C   0  0  0  0  0  0
   -7.2257    9.8514   -7.9841 C   0  0  0  0  0  0
   -8.0088   10.4290   -7.4862 H   0  0  0  0  0  0
   -7.2161    8.8796   -7.4854 H   0  0  0  0  0  0
   -7.5621    9.6839   -9.4431 C   0  0  0  0  0  0
   -8.2465    8.6457   -9.8601 N   0  0  0  0  0  0
   -8.4159    8.8045  -11.1975 N   0  0  0  0  0  0
   -8.9502    8.1258  -11.7289 H   0  0  0  0  0  0
   -7.8273    9.9474  -11.6947 C   0  0  0  0  0  0
   -7.2413   10.5449  -10.5484 C   0  0  0  0  0  0
   -6.5294   11.7467  -10.7406 C   0  0  0  0  0  0
   -6.0852   12.2336   -9.8863 H   0  0  0  0  0  0
   -6.3563   12.3077  -12.0259 C   0  0  0  0  0  0
   -5.5362   13.5572  -12.1825 C   0  0  0  0  0  0
   -5.9634   14.4904  -12.8591 O   0  0  0  0  0  0
   -4.3771   13.6269  -11.4873 N   0  0  0  0  0  0
   -3.5313   12.4788  -11.1187 C   0  0  0  0  0  0
   -3.9497   11.5214  -11.4400 H   0  0  0  0  0  0
   -3.4548   12.4356  -10.0313 H   0  0  0  0  0  0
   -2.1266   12.6153  -11.7432 C   0  0  0  0  0  0
   -1.4575   11.8547  -11.3364 H   0  0  0  0  0  0
   -2.1916   12.4202  -12.8140 H   0  0  0  0  0  0
   -1.5271   13.9516  -11.4995 N   0  3  0  0  0  0
   -1.2173   13.9804  -10.5399 H   0  0  0  0  0  0
   -2.4434   15.0961  -11.7287 C   0  0  0  0  0  0
   -1.9564   16.0116  -11.3987 H   0  0  0  0  0  0
   -2.6466   15.2159  -12.7917 H   0  0  0  0  0  0
   -3.7957   14.8958  -11.0443 C   0  0  0  0  0  0
   -3.6689   14.8810   -9.9610 H   0  0  0  0  0  0
   -4.4493   15.7424  -11.2583 H   0  0  0  0  0  0
   -7.0022   11.7149  -13.1320 C   0  0  0  0  0  0
   -6.9139   12.1537  -14.1143 H   0  0  0  0  0  0
   -7.7332   10.5264  -12.9709 C   0  0  0  0  0  0
   -8.2191   10.0653  -13.8172 H   0  0  0  0  0  0
   -5.8120   11.8110   -7.1954 C   0  0  0  0  0  0
   -6.7168   12.3529   -6.9524 H   0  0  0  0  0  0
   -4.5610   12.4178   -6.9739 C   0  0  0  0  0  0
   -4.5187   13.4065   -6.5450 H   0  0  0  0  0  0
   -0.7052   14.0647  -12.0846 H   0  0  0  0  0  0
  1  2  1  0  0  0
  2 11  1  0  0  0
  2  3  2  0  0  0
  3  4  1  0  0  0
  4  5  1  0  0  0
  4  9  1  0  0  0
  5  6  1  0  0  0
  5  7  1  0  0  0
  5  8  1  0  0  0
  9 10  1  0  0  0
  9 11  2  0  0  0
 11 12  1  0  0  0
 12 53  1  0  0  0
 12 13  2  0  0  0
 13 14  1  0  0  0
 13 15  1  0  0  0
 15 16  1  0  0  0
 15 17  2  0  0  0
 17 18  1  0  0  0
 17 51  1  0  0  0
 18 19  1  0  0  0
 18 20  1  0  0  0
 18 21  1  0  0  0
 21 26  1  0  0  0
 21 22  2  0  0  0
 22 23  1  0  0  0
 23 24  1  0  0  0
 23 25  1  0  0  0
 25 49  1  0  0  0
 25 26  2  0  0  0
 26 27  1  0  0  0
 27 28  1  0  0  0
 27 29  2  0  0  0
 29 30  1  0  0  0
 29 47  1  0  0  0
 30 31  2  0  0  0
 30 32  1  0  0  0
 32 44  1  0  0  0
 32 33  1  0  0  0
 33 34  1  0  0  0
 33 35  1  0  0  0
 33 36  1  0  0  0
 36 37  1  0  0  0
 36 38  1  0  0  0
 36 39  1  0  0  0
 39 40  1  0  0  0
 39 41  1  0  0  0
 39 55  1  0  0  0
 41 42  1  0  0  0
 41 43  1  0  0  0
 41 44  1  0  0  0
 44 45  1  0  0  0
 44 46  1  0  0  0
 47 48  1  0  0  0
 47 49  2  0  0  0
 49 50  1  0  0  0
 51 52  1  0  0  0
 51 53  2  0  0  0
 53 54  1  0  0  0
M  CHG  1  39   1
M  END
> <s_m_source_file>
ligprep_cdk8.smi

> <i_m_source_file_index>
28

> <i_lp_mmshare_version>
53161

> <i_f3d_flags>
0

> <s_epik_input>
W0NIM11uMW5bY0hdYyhbY0hdMSktYzJbY0hdW2NIXWMoW2NIXVtjSF0yKVtDSDJdYyhuW25IXTMpYyhjMzQpW2NIXWMoW2NIXVtjSF00KUMoPU8pTjVbQ0gyXVtDSDJdW05IXVtDSDJdW0NIMl01

> <s_epik_cmdline>
J2VwaWtfcHl0aG9uJywgJy1waHQnLCAnMC4wJywgJy1waCcsICc3LjQnLCAnLXRuJywgJzgnLCAnLW1hJywgJzUwMCcsICctaW1hZScsICc8aW5maWxlLm1hZT4nLCAnLW9tYWUnLCAnPG91dGZpbGUubWFlPic=

> <r_lp_tautomer_probability>
0.980392

> <r_epik_Ionization_Penalty>
  0.1225

> <r_epik_Ionization_Penalty_Charging>
  0.1225

> <r_epik_Ionization_Penalty_Neutral>
  0.0001

> <r_epik_State_Penalty>
  0.1120

> <r_epik_Charging_Adjusted_Penalty>
0.234459

> <i_epik_Tot_Q>
1

> <i_epik_Tot_abs_Q>
1

> <s_lp_Force_Field>
S-OPLS

> <r_lp_Energy>
47.4346

> <b_lp_Chiralities_Consistent>
1

> <s_lp_Variant>
lig_40-1

> <s_i_glide_gridfile>
glide-grid_CDK8-5HNB

> <i_i_glide_lignum>
28

> <i_i_glide_rotatable_bonds>
5

> <r_i_docking_score>
-10.6805215623837

> <r_i_glide_ligand_efficiency>
-0.356017385412789

> <r_i_glide_ligand_efficiency_sa>
-1.10622879138515

> <r_i_glide_ligand_efficiency_ln>
-2.42673087257679

> <r_i_glide_gscore>
-10.7925215623837

> <r_i_glide_lipo>
-4.27183063504508

> <r_i_glide_hbond>
-0.5906501680744

> <r_i_glide_metal>
-0

> <r_i_glide_rewards>
-2.20529563859145

> <r_i_glide_evdw>
-48.4618797302246

> <r_i_glide_ecoul>
-11.0606660842896

> <r_i_glide_erotb>
0.42590076043445

> <r_i_glide_esite>
-0.0684519819525312

> <r_i_glide_emodel>
-99.4200979575267

> <r_i_glide_energy>
-59.5225458145142

> <r_i_glide_einternal>
4.20337677001953

> <i_i_glide_confnum>
28

> <i_i_glide_posenum>
19

> <r_i_glide_eff_state_penalty>
0.112

> <r_i_glide_rmsd>
0.0973331528743692

> <s_glide_core_constrain_type>
snapped_core_restrain

$$$$
lig_30
                    3D
 Schrodinger Suite 2022-3.
 53 57  0  0  1  0            999 V2000
   -0.7872   12.8089  -12.2992 H   0  0  0  0  0  0
   -1.6810   12.4903  -12.2318 O   0  0  0  0  0  0
   -2.2207   12.9887  -11.0250 C   0  0  2  0  0  0
   -1.6495   12.5822  -10.1897 H   0  0  0  0  0  0
   -3.6815   12.5709  -10.9758 C   0  0  0  0  0  0
   -3.8462   11.6095  -11.4691 H   0  0  0  0  0  0
   -3.9905   12.4692   -9.9390 H   0  0  0  0  0  0
   -4.4241   13.6755  -11.5866 N   0  0  0  0  0  0
   -5.6265   13.5854  -12.1973 C   0  0  0  0  0  0
   -6.0768   14.4908  -12.8958 O   0  0  0  0  0  0
   -6.4289   12.3272  -12.0050 C   0  0  0  0  0  0
   -6.6168   11.7969  -10.7099 C   0  0  0  0  0  0
   -6.2085   12.3107   -9.8540 H   0  0  0  0  0  0
   -7.2892   10.5758  -10.5034 C   0  0  0  0  0  0
   -7.8466    9.9372  -11.6429 C   0  0  0  0  0  0
   -7.7616   10.4948  -12.9294 C   0  0  0  0  0  0
   -8.2338   10.0090  -13.7712 H   0  0  0  0  0  0
   -7.0367   11.6895  -13.1113 C   0  0  0  0  0  0
   -6.9384   12.1042  -14.1037 H   0  0  0  0  0  0
   -8.4087    8.7895  -11.1253 N   0  0  0  0  0  0
   -8.9146    8.0807  -11.6463 H   0  0  0  0  0  0
   -8.2463    8.6650   -9.7838 N   0  0  0  0  0  0
   -7.5899    9.7283   -9.3851 C   0  0  0  0  0  0
   -7.2591    9.9313   -7.9327 C   0  0  0  0  0  0
   -8.0228   10.5596   -7.4737 H   0  0  0  0  0  0
   -7.3026    8.9850   -7.3918 H   0  0  0  0  0  0
   -5.8857   10.5450   -7.6982 C   0  0  0  0  0  0
   -4.7155    9.8390   -8.0465 C   0  0  0  0  0  0
   -4.7899    8.8534   -8.4813 H   0  0  0  0  0  0
   -3.4457   10.3996   -7.7905 C   0  0  0  0  0  0
   -2.5579    9.8333   -8.0362 H   0  0  0  0  0  0
   -3.3257   11.6858   -7.2212 C   0  0  0  0  0  0
   -2.0109   12.2862   -6.9485 C   0  0  0  0  0  0
   -0.9802   11.7445   -6.2408 C   0  0  0  0  0  0
   -0.8730   10.8064   -5.7341 H   0  0  0  0  0  0
    0.0037   12.7029   -6.1759 N   0  0  0  0  0  0
    1.2605   12.6437   -5.4522 C   0  0  0  0  0  0
    1.2787   11.7660   -4.8062 H   0  0  0  0  0  0
    2.1045   12.5820   -6.1327 H   0  0  0  0  0  0
    1.3738   13.5350   -4.8370 H   0  0  0  0  0  0
   -0.3416   13.8252   -6.8501 N   0  0  0  0  0  0
   -1.5621   13.5856   -7.3107 C   0  0  0  0  0  0
   -2.0765   14.3558   -7.8632 H   0  0  0  0  0  0
   -4.5022   12.3907   -6.8902 C   0  0  0  0  0  0
   -4.4324   13.3680   -6.4362 H   0  0  0  0  0  0
   -5.7707   11.8235   -7.1167 C   0  0  0  0  0  0
   -6.6533   12.3780   -6.8411 H   0  0  0  0  0  0
   -3.5752   14.8613  -11.7075 C   0  0  0  0  0  0
   -4.0336   15.7303  -11.2344 H   0  0  0  0  0  0
   -3.4217   15.0942  -12.7628 H   0  0  0  0  0  0
   -2.2458   14.5110  -11.0388 C   0  0  0  0  0  0
   -2.2410   14.8972  -10.0218 H   0  0  0  0  0  0
   -1.3883   14.9475  -11.5541 H   0  0  0  0  0  0
  1  2  1  0  0  0
  2  3  1  0  0  0
  3 51  1  0  0  0
  3  4  1  0  0  0
  3  5  1  0  0  0
  5  6  1  0  0  0
  5  7  1  0  0  0
  5  8  1  0  0  0
  8  9  1  0  0  0
  8 48  1  0  0  0
  9 10  2  0  0  0
  9 11  1  0  0  0
 11 18  1  0  0  0
 11 12  2  0  0  0
 12 13  1  0  0  0
 12 14  1  0  0  0
 14 23  1  0  0  0
 14 15  2  0  0  0
 15 16  1  0  0  0
 15 20  1  0  0  0
 16 17  1  0  0  0
 16 18  2  0  0  0
 18 19  1  0  0  0
 20 21  1  0  0  0
 20 22  1  0  0  0
 22 23  2  0  0  0
 23 24  1  0  0  0
 24 25  1  0  0  0
 24 26  1  0  0  0
 24 27  1  0  0  0
 27 46  1  0  0  0
 27 28  2  0  0  0
 28 29  1  0  0  0
 28 30  1  0  0  0
 30 31  1  0  0  0
 30 32  2  0  0  0
 32 33  1  0  0  0
 32 44  1  0  0  0
 33 42  1  0  0  0
 33 34  2  0  0  0
 34 35  1  0  0  0
 34 36  1  0  0  0
 36 37  1  0  0  0
 36 41  1  0  0  0
 37 38  1  0  0  0
 37 39  1  0  0  0
 37 40  1  0  0  0
 41 42  2  0  0  0
 42 43  1  0  0  0
 44 45  1  0  0  0
 44 46  2  0  0  0
 46 47  1  0  0  0
 48 49  1  0  0  0
 48 50  1  0  0  0
 48 51  1  0  0  0
 51 52  1  0  0  0
 51 53  1  0  0  0
M  END
> <s_m_source_file>
ligprep_cdk8.smi

> <i_m_source_file_index>
18

> <i_lp_mmshare_version>
53161

> <i_f3d_flags>
0

> <s_epik_input>
W09IXVtDQEBIXTFbQ0gyXU4oW0NIMl1bQ0gyXTEpQyg9TyljKFtjSF0yKVtjSF1bY0hdYyhjMjMpW25IXW5jM1tDSDJdYzRbY0hdW2NIXWMoW2NIXVtjSF00KS1jNVtjSF1uKFtDSDNdKW5bY0hdNQ==

> <s_epik_cmdline>
J2VwaWtfcHl0aG9uJywgJy1waHQnLCAnMC4wJywgJy1waCcsICc3LjQnLCAnLXRuJywgJzgnLCAnLW1hJywgJzUwMCcsICctaW1hZScsICc8aW5maWxlLm1hZT4nLCAnLW9tYWUnLCAnPG91dGZpbGUubWFlPic=

> <r_lp_tautomer_probability>
1

> <r_epik_Ionization_Penalty>
  0.0001

> <r_epik_Ionization_Penalty_Charging>
  0.0000

> <r_epik_Ionization_Penalty_Neutral>
  0.0001

> <r_epik_State_Penalty>
 -0.0000

> <r_epik_Charging_Adjusted_Penalty>
0

> <i_epik_Tot_Q>
0

> <i_epik_Tot_abs_Q>
0

> <s_lp_Force_Field>
S-OPLS

> <r_lp_Energy>
35.0305

> <b_lp_Chiralities_Consistent>
1

> <s_lp_Variant>
lig_30-1

> <s_i_glide_gridfile>
glide-grid_CDK8-5HNB

> <i_i_glide_lignum>
18

> <i_i_glide_rotatable_bonds>
6

> <r_i_docking_score>
-10.5792794380612

> <r_i_glide_ligand_efficiency>
-0.352642647935373

> <r_i_glide_ligand_efficiency_sa>
-1.09574269740815

> <r_i_glide_ligand_efficiency_ln>
-2.40372755880942

> <r_i_glide_gscore>
-10.5792794380612

> <r_i_glide_lipo>
-4.14261264504261

> <r_i_glide_hbond>
-0.840025227407668

> <r_i_glide_metal>
-0

> <r_i_glide_rewards>
-2.41536080525633

> <r_i_glide_evdw>
-49.6699028015137

> <r_i_glide_ecoul>
-8.05946445465088

> <r_i_glide_erotb>
0.511134047918744

> <r_i_glide_esite>
0

> <r_i_glide_emodel>
-93.737816678333

> <r_i_glide_energy>
-57.7293672561646

> <r_i_glide_einternal>
3.31769752502441

> <i_i_glide_confnum>
2

> <i_i_glide_posenum>
10

> <r_i_glide_eff_state_penalty>
-0

> <r_i_glide_rmsd>
0.0573933114695855

> <s_glide_core_constrain_type>
snapped_core_restrain

$$$$
lig_42
                    3D
 Schrodinger Suite 2022-3.
 49 53  0  0  1  0            999 V2000
   -0.8355   12.8736  -12.3843 H   0  0  0  0  0  0
   -1.6675   12.4449  -12.2171 O   0  0  0  0  0  0
   -2.2187   12.9537  -11.0213 C   0  0  2  0  0  0
   -1.6600   12.5446  -10.1793 H   0  0  0  0  0  0
   -3.6865   12.5505  -10.9655 C   0  0  0  0  0  0
   -3.8679   11.5847  -11.4388 H   0  0  0  0  0  0
   -3.9857   12.4772   -9.9222 H   0  0  0  0  0  0
   -4.4293   13.6570  -11.5740 N   0  0  0  0  0  0
   -5.6196   13.5628  -12.2075 C   0  0  0  0  0  0
   -6.0404   14.4494  -12.9482 O   0  0  0  0  0  0
   -6.4371   12.3181  -12.0010 C   0  0  0  0  0  0
   -6.6147   11.7853  -10.7028 C   0  0  0  0  0  0
   -6.1967   12.2927   -9.8476 H   0  0  0  0  0  0
   -7.2932   10.5685  -10.4960 C   0  0  0  0  0  0
   -7.8560    9.9309  -11.6329 C   0  0  0  0  0  0
   -7.7779   10.4917  -12.9203 C   0  0  0  0  0  0
   -8.2438   10.0119  -13.7693 H   0  0  0  0  0  0
   -7.0614   11.6898  -13.1025 C   0  0  0  0  0  0
   -6.9738   12.1147  -14.0914 H   0  0  0  0  0  0
   -8.4113    8.7803  -11.1135 N   0  0  0  0  0  0
   -8.9174    8.0680  -11.6338 H   0  0  0  0  0  0
   -8.2426    8.6580   -9.7710 N   0  0  0  0  0  0
   -7.5916    9.7232   -9.3752 C   0  0  0  0  0  0
   -7.2556    9.9410   -7.9238 C   0  0  0  0  0  0
   -8.0102   10.5855   -7.4705 H   0  0  0  0  0  0
   -7.3041    9.0030   -7.3694 H   0  0  0  0  0  0
   -5.8786   10.5488   -7.6954 C   0  0  0  0  0  0
   -5.7525   11.8227   -7.0950 C   0  0  0  0  0  0
   -6.6419   12.3695   -6.8068 H   0  0  0  0  0  0
   -4.4798   12.4003   -6.8810 C   0  0  0  0  0  0
   -3.3341   11.6639   -7.2861 C   0  0  0  0  0  0
   -3.4417   10.3966   -7.8813 C   0  0  0  0  0  0
   -2.5510    9.8646   -8.1779 H   0  0  0  0  0  0
   -4.7196    9.8395   -8.0869 C   0  0  0  0  0  0
   -4.8067    8.8660   -8.5525 H   0  0  0  0  0  0
   -2.2639   12.4852   -6.9539 N   0  0  0  0  0  0
   -0.8447   12.2421   -7.1347 C   0  0  0  0  0  0
   -0.6480   11.1673   -7.1318 H   0  0  0  0  0  0
   -0.5152   12.6602   -8.0878 H   0  0  0  0  0  0
   -0.2739   12.7035   -6.3260 H   0  0  0  0  0  0
   -2.6555   13.6588   -6.3842 N   0  0  0  0  0  0
   -3.9662   13.6117   -6.3279 C   0  0  0  0  0  0
   -4.5182   14.4278   -5.8884 H   0  0  0  0  0  0
   -3.5866   14.8464  -11.6677 C   0  0  0  0  0  0
   -4.0487   15.6951  -11.1653 H   0  0  0  0  0  0
   -3.4415   15.1186  -12.7138 H   0  0  0  0  0  0
   -2.2599   14.4783  -11.0021 C   0  0  0  0  0  0
   -2.2795   14.8100   -9.9623 H   0  0  0  0  0  0
   -1.4030   14.9548  -11.4803 H   0  0  0  0  0  0
  1  2  1  0  0  0
  2  3  1  0  0  0
  3 47  1  0  0  0
  3  4  1  0  0  0
  3  5  1  0  0  0
  5  6  1  0  0  0
  5  7  1  0  0  0
  5  8  1  0  0  0
  8  9  1  0  0  0
  8 44  1  0  0  0
  9 10  2  0  0  0
  9 11  1  0  0  0
 11 18  1  0  0  0
 11 12  2  0  0  0
 12 13  1  0  0  0
 12 14  1  0  0  0
 14 23  1  0  0  0
 14 15  2  0  0  0
 15 16  1  0  0  0
 15 20  1  0  0  0
 16 17  1  0  0  0
 16 18  2  0  0  0
 18 19  1  0  0  0
 20 21  1  0  0  0
 20 22  1  0  0  0
 22 23  2  0  0  0
 23 24  1  0  0  0
 24 25  1  0  0  0
 24 26  1  0  0  0
 24 27  1  0  0  0
 27 34  1  0  0  0
 27 28  2  0  0  0
 28 29  1  0  0  0
 28 30  1  0  0  0
 30 42  1  0  0  0
 30 31  2  0  0  0
 31 32  1  0  0  0
 31 36  1  0  0  0
 32 33  1  0  0  0
 32 34  2  0  0  0
 34 35  1  0  0  0
 36 37  1  0  0  0
 36 41  1  0  0  0
 37 38  1  0  0  0
 37 39  1  0  0  0
 37 40  1  0  0  0
 41 42  2  0  0  0
 42 43  1  0  0  0
 44 45  1  0  0  0
 44 46  1  0  0  0
 44 47  1  0  0  0
 47 48  1  0  0  0
 47 49  1  0  0  0
M  END
> <s_m_source_file>
ligprep_cdk8.smi

> <i_m_source_file_index>
30

> <i_lp_mmshare_version>
53161

> <i_f3d_flags>
0

> <s_epik_input>
W09IXVtDQEBIXTFbQ0gyXU4oW0NIMl1bQ0gyXTEpQyg9TyljKFtjSF0yKVtjSF1bY0hdYyhjMjMpW25IXW5jM1tDSDJdYyhbY0hdNClbY0hdW2NIXWMoYzQ1KW4oW0NIM10pbltjSF01

> <s_epik_cmdline>
J2VwaWtfcHl0aG9uJywgJy1waHQnLCAnMC4wJywgJy1waCcsICc3LjQnLCAnLXRuJywgJzgnLCAnLW1hJywgJzUwMCcsICctaW1hZScsICc8aW5maWxlLm1hZT4nLCAnLW9tYWUnLCAnPG91dGZpbGUubWFlPic=

> <r_lp_tautomer_probability>
1

> <r_epik_Ionization_Penalty>
  0.0000

> <r_epik_Ionization_Penalty_Charging>
  0.0000

> <r_epik_Ionization_Penalty_Neutral>
  0.0000

> <r_epik_State_Penalty>
 -0.0000

> <r_epik_Charging_Adjusted_Penalty>
0

> <i_epik_Tot_Q>
0

> <i_epik_Tot_abs_Q>
0

> <s_lp_Force_Field>
S-OPLS

> <r_lp_Energy>
36.5717

> <b_lp_Chiralities_Consistent>
1

> <s_lp_Variant>
lig_42-1

> <s_i_glide_gridfile>
glide-grid_CDK8-5HNB

> <i_i_glide_lignum>
30

> <i_i_glide_rotatable_bonds>
5

> <r_i_docking_score>
-10.3773985736723

> <r_i_glide_ligand_efficiency>
-0.370621377631155

> <r_i_glide_ligand_efficiency_sa>
-1.12542478680608

> <r_i_glide_ligand_efficiency_ln>
-2.39540828446547

> <r_i_glide_gscore>
-10.3773985736723

> <r_i_glide_lipo>
-3.9449850890235

> <r_i_glide_hbond>
-0.829816138667624

> <r_i_glide_metal>
-0

> <r_i_glide_rewards>
-2.49505359891504

> <r_i_glide_evdw>
-47.1487236022949

> <r_i_glide_ecoul>
-8.20359420776367

> <r_i_glide_erotb>
0.480431564213117

> <r_i_glide_esite>
0

> <r_i_glide_emodel>
-91.3240704761294

> <r_i_glide_energy>
-55.3523178100586

> <r_i_glide_einternal>
0.351046711206436

> <i_i_glide_confnum>
8

> <i_i_glide_posenum>
1

> <r_i_glide_eff_state_penalty>
-0

> <r_i_glide_rmsd>
0.0418033882632159

> <s_glide_core_constrain_type>
snapped_core_restrain

$$$$
lig_37
                    3D
 Schrodinger Suite 2022-3.
 52 56  0  0  1  0            999 V2000
   -2.0883   14.4242   -7.7244 H   0  0  0  0  0  0
   -1.5765   13.6434   -7.1814 C   0  0  0  0  0  0
   -0.3639   13.8793   -6.7012 N   0  0  0  0  0  0
   -0.0161   12.7386   -6.0579 N   0  0  0  0  0  0
    1.2572   12.6559   -5.3687 C   0  0  0  0  0  0
    1.1759   11.9792   -4.5179 H   0  0  0  0  0  0
    2.0212   12.2739   -6.0448 H   0  0  0  0  0  0
    1.5607   13.6392   -5.0057 H   0  0  0  0  0  0
   -0.9991   11.7773   -6.1499 C   0  0  0  0  0  0
   -0.8941   10.8165   -5.6720 H   0  0  0  0  0  0
   -2.0174   12.3287   -6.8696 C   0  0  0  0  0  0
   -3.3189   11.7186   -7.1934 C   0  0  0  0  0  0
   -4.5174   12.3944   -6.8729 C   0  0  0  0  0  0
   -4.4751   13.3669   -6.4036 H   0  0  0  0  0  0
   -5.7706   11.8007   -7.1168 C   0  0  0  0  0  0
   -6.6698   12.3315   -6.8456 H   0  0  0  0  0  0
   -5.8493   10.5222   -7.7026 C   0  0  0  0  0  0
   -7.2056    9.8754   -7.9400 C   0  0  0  0  0  0
   -7.9772   10.4580   -7.4362 H   0  0  0  0  0  0
   -7.2015    8.9075   -7.4387 H   0  0  0  0  0  0
   -7.5636    9.7147   -9.3931 C   0  0  0  0  0  0
   -8.2452    8.6722   -9.8035 N   0  0  0  0  0  0
   -8.4105    8.8166  -11.1418 N   0  0  0  0  0  0
   -8.9261    8.1221  -11.6708 H   0  0  0  0  0  0
   -7.8492    9.9721  -11.6424 C   0  0  0  0  0  0
   -7.2687   10.5845  -10.4999 C   0  0  0  0  0  0
   -6.5834   11.8020  -10.6979 C   0  0  0  0  0  0
   -6.1455   12.2885   -9.8414 H   0  0  0  0  0  0
   -6.4209   12.3586  -11.9863 C   0  0  0  0  0  0
   -5.6131   13.6104  -12.1801 C   0  0  0  0  0  0
   -6.0756   14.5350  -12.8441 O   0  0  0  0  0  0
   -4.3858   13.6640  -11.6171 N   0  0  0  0  0  0
   -3.5422   14.8531  -11.7128 C   0  0  0  0  0  0
   -4.0096   15.7122  -11.2287 H   0  0  0  0  0  0
   -3.3785   15.1155  -12.7583 H   0  0  0  0  0  0
   -2.2234   14.4937  -11.0372 C   0  0  0  0  0  0
   -2.2450   14.8478  -10.0051 H   0  0  0  0  0  0
   -1.3633   14.9500  -11.5298 H   0  0  0  0  0  0
   -2.1719   12.9735  -11.0667 C   0  0  0  0  0  0
   -1.7295   12.6445  -12.0077 H   0  0  0  0  0  0
   -1.5739   12.5509  -10.2580 H   0  0  0  0  0  0
   -3.6416   12.5558  -11.0048 C   0  0  0  0  0  0
   -3.7999   11.6008  -11.5073 H   0  0  0  0  0  0
   -3.9386   12.4551   -9.9615 H   0  0  0  0  0  0
   -7.0501   11.7492  -13.0933 C   0  0  0  0  0  0
   -6.9604   12.1827  -14.0795 H   0  0  0  0  0  0
   -7.7744   10.5518  -12.9215 C   0  0  0  0  0  0
   -8.2445   10.0773  -13.7700 H   0  0  0  0  0  0
   -4.6583    9.8494   -8.0455 C   0  0  0  0  0  0
   -4.7027    8.8692   -8.4962 H   0  0  0  0  0  0
   -3.4048   10.4399   -7.7856 C   0  0  0  0  0  0
   -2.5017    9.9039   -8.0439 H   0  0  0  0  0  0
  1  2  1  0  0  0
  2 11  1  0  0  0
  2  3  2  0  0  0
  3  4  1  0  0  0
  4  5  1  0  0  0
  4  9  1  0  0  0
  5  6  1  0  0  0
  5  7  1  0  0  0
  5  8  1  0  0  0
  9 10  1  0  0  0
  9 11  2  0  0  0
 11 12  1  0  0  0
 12 51  1  0  0  0
 12 13  2  0  0  0
 13 14  1  0  0  0
 13 15  1  0  0  0
 15 16  1  0  0  0
 15 17  2  0  0  0
 17 18  1  0  0  0
 17 49  1  0  0  0
 18 19  1  0  0  0
 18 20  1  0  0  0
 18 21  1  0  0  0
 21 26  1  0  0  0
 21 22  2  0  0  0
 22 23  1  0  0  0
 23 24  1  0  0  0
 23 25  1  0  0  0
 25 47  1  0  0  0
 25 26  2  0  0  0
 26 27  1  0  0  0
 27 28  1  0  0  0
 27 29  2  0  0  0
 29 30  1  0  0  0
 29 45  1  0  0  0
 30 31  2  0  0  0
 30 32  1  0  0  0
 32 42  1  0  0  0
 32 33  1  0  0  0
 33 34  1  0  0  0
 33 35  1  0  0  0
 33 36  1  0  0  0
 36 37  1  0  0  0
 36 38  1  0  0  0
 36 39  1  0  0  0
 39 40  1  0  0  0
 39 41  1  0  0  0
 39 42  1  0  0  0
 42 43  1  0  0  0
 42 44  1  0  0  0
 45 46  1  0  0  0
 45 47  2  0  0  0
 47 48  1  0  0  0
 49 50  1  0  0  0
 49 51  2  0  0  0
 51 52  1  0  0  0
M  END
> <s_m_source_file>
ligprep_cdk8.smi

> <i_m_source_file_index>
25

> <i_lp_mmshare_version>
53161

> <i_f3d_flags>
0

> <s_epik_input>
W0NIM11uMW5bY0hdYyhbY0hdMSktYzJbY0hdW2NIXWMoW2NIXVtjSF0yKVtDSDJdYyhuW25IXTMpYyhjMzQpW2NIXWMoW2NIXVtjSF00KUMoPU8pTjVbQ0gyXVtDSDJdW0NIMl1bQ0gyXTU=

> <s_epik_cmdline>
J2VwaWtfcHl0aG9uJywgJy1waHQnLCAnMC4wJywgJy1waCcsICc3LjQnLCAnLXRuJywgJzgnLCAnLW1hJywgJzUwMCcsICctaW1hZScsICc8aW5maWxlLm1hZT4nLCAnLW9tYWUnLCAnPG91dGZpbGUubWFlPic=

> <r_lp_tautomer_probability>
1

> <r_epik_Ionization_Penalty>
  0.0001

> <r_epik_Ionization_Penalty_Charging>
  0.0000

> <r_epik_Ionization_Penalty_Neutral>
  0.0001

> <r_epik_State_Penalty>
 -0.0000

> <r_epik_Charging_Adjusted_Penalty>
0

> <i_epik_Tot_Q>
0

> <i_epik_Tot_abs_Q>
0

> <s_lp_Force_Field>
S-OPLS

> <r_lp_Energy>
39.1985

> <b_lp_Chiralities_Consistent>
1

> <s_lp_Variant>
lig_37-1

> <s_i_glide_gridfile>
glide-grid_CDK8-5HNB

> <i_i_glide_lignum>
25

> <i_i_glide_rotatable_bonds>
5

> <r_i_docking_score>
-10.039047048873

> <r_i_glide_ligand_efficiency>
-0.346174036168036

> <r_i_glide_ligand_efficiency_sa>
-1.06355631474087

> <r_i_glide_ligand_efficiency_ln>
-2.29868720592352

> <r_i_glide_gscore>
-10.039047048873

> <r_i_glide_lipo>
-4.13308194474956

> <r_i_glide_hbond>
-0.57136925896268

> <r_i_glide_metal>
-0

> <r_i_glide_rewards>
-2.54546279427631

> <r_i_glide_evdw>
-49.3369331359863

> <r_i_glide_ecoul>
-5.20354509353638

> <r_i_glide_erotb>
0.458245369945276

> <r_i_glide_esite>
0

> <r_i_glide_emodel>
-86.2588828015368

> <r_i_glide_energy>
-54.5404782295227

> <r_i_glide_einternal>
3.01573467254639

> <i_i_glide_confnum>
1

> <i_i_glide_posenum>
10

> <r_i_glide_eff_state_penalty>
-0

> <r_i_glide_rmsd>
0.0822814745234321

> <s_glide_core_constrain_type>
snapped_core_restrain

$$$$
lig_38
                    3D
 Schrodinger Suite 2022-3.
 52 56  0  0  1  0            999 V2000
   -2.4932   14.4020   -6.2419 H   0  0  0  0  0  0
   -1.8086   13.5756   -6.3109 C   0  0  0  0  0  0
   -0.5730   13.7350   -5.8603 N   0  0  0  0  0  0
    0.0123   12.5267   -6.0293 N   0  0  0  0  0  0
    1.3532   12.3084   -5.5285 C   0  0  0  0  0  0
    1.6320   11.2653   -5.6626 H   0  0  0  0  0  0
    2.0641   12.9510   -6.0460 H   0  0  0  0  0  0
    1.3865   12.5340   -4.4606 H   0  0  0  0  0  0
   -0.8328   11.6270   -6.6407 C   0  0  0  0  0  0
   -0.5271   10.6150   -6.8611 H   0  0  0  0  0  0
   -2.0388   12.2478   -6.7685 C   0  0  0  0  0  0
   -3.3271   11.6546   -7.1823 C   0  0  0  0  0  0
   -4.5287   12.3508   -6.9098 C   0  0  0  0  0  0
   -4.5008   13.3260   -6.4480 H   0  0  0  0  0  0
   -5.7851   11.7813   -7.1830 C   0  0  0  0  0  0
   -6.6812   12.3309   -6.9357 H   0  0  0  0  0  0
   -5.8707   10.4970   -7.7534 C   0  0  0  0  0  0
   -7.2279    9.8597   -7.9969 C   0  0  0  0  0  0
   -8.0008   10.4572   -7.5132 H   0  0  0  0  0  0
   -7.2378    8.8975   -7.4829 H   0  0  0  0  0  0
   -7.5687    9.6781   -9.4489 C   0  0  0  0  0  0
   -8.2466    8.6273   -9.8445 N   0  0  0  0  0  0
   -8.4118    8.7542  -11.1829 N   0  0  0  0  0  0
   -8.9388    8.0551  -11.6945 H   0  0  0  0  0  0
   -7.8483    9.9053  -11.6988 C   0  0  0  0  0  0
   -7.2649   10.5307  -10.5645 C   0  0  0  0  0  0
   -6.5735   11.7446  -10.7758 C   0  0  0  0  0  0
   -6.1475   12.2471   -9.9221 H   0  0  0  0  0  0
   -6.3991   12.2825  -12.0727 C   0  0  0  0  0  0
   -5.5931   13.5363  -12.2885 C   0  0  0  0  0  0
   -6.0298   14.4142  -13.0306 O   0  0  0  0  0  0
   -4.3942   13.6516  -11.6758 N   0  0  0  0  0  0
   -3.6402   12.5893  -10.9995 C   0  0  0  0  0  0
   -3.7721   11.6104  -11.4637 H   0  0  0  0  0  0
   -3.9519   12.5259   -9.9579 H   0  0  0  0  0  0
   -2.1806   13.0374  -11.0659 C   0  0  0  0  0  0
   -1.7389   12.7279  -12.0146 H   0  0  0  0  0  0
   -1.5673   12.6264  -10.2626 H   0  0  0  0  0  0
   -2.2943   14.5534  -11.0203 C   0  0  0  0  0  0
   -2.4576   14.9224   -9.7488 F   0  0  0  0  0  0
   -1.2190   15.1611  -11.5118 F   0  0  0  0  0  0
   -3.5746   14.8604  -11.7936 C   0  0  0  0  0  0
   -4.0845   15.7376  -11.3936 H   0  0  0  0  0  0
   -3.3594   15.0566  -12.8449 H   0  0  0  0  0  0
   -7.0360   11.6578  -13.1691 C   0  0  0  0  0  0
   -6.9528   12.0806  -14.1605 H   0  0  0  0  0  0
   -7.7699   10.4702  -12.9827 C   0  0  0  0  0  0
   -8.2523    9.9949  -13.8228 H   0  0  0  0  0  0
   -4.6851    9.8032   -8.0659 C   0  0  0  0  0  0
   -4.7370    8.8161   -8.5035 H   0  0  0  0  0  0
   -3.4288   10.3733   -7.7792 C   0  0  0  0  0  0
   -2.5342    9.8072   -7.9960 H   0  0  0  0  0  0
  1  2  1  0  0  0
  2 11  1  0  0  0
  2  3  2  0  0  0
  3  4  1  0  0  0
  4  5  1  0  0  0
  4  9  1  0  0  0
  5  6  1  0  0  0
  5  7  1  0  0  0
  5  8  1  0  0  0
  9 10  1  0  0  0
  9 11  2  0  0  0
 11 12  1  0  0  0
 12 51  1  0  0  0
 12 13  2  0  0  0
 13 14  1  0  0  0
 13 15  1  0  0  0
 15 16  1  0  0  0
 15 17  2  0  0  0
 17 18  1  0  0  0
 17 49  1  0  0  0
 18 19  1  0  0  0
 18 20  1  0  0  0
 18 21  1  0  0  0
 21 26  1  0  0  0
 21 22  2  0  0  0
 22 23  1  0  0  0
 23 24  1  0  0  0
 23 25  1  0  0  0
 25 47  1  0  0  0
 25 26  2  0  0  0
 26 27  1  0  0  0
 27 28  1  0  0  0
 27 29  2  0  0  0
 29 30  1  0  0  0
 29 45  1  0  0  0
 30 31  2  0  0  0
 30 32  1  0  0  0
 32 42  1  0  0  0
 32 33  1  0  0  0
 33 34  1  0  0  0
 33 35  1  0  0  0
 33 36  1  0  0  0
 36 37  1  0  0  0
 36 38  1  0  0  0
 36 39  1  0  0  0
 39 40  1  0  0  0
 39 41  1  0  0  0
 39 42  1  0  0  0
 42 43  1  0  0  0
 42 44  1  0  0  0
 45 46  1  0  0  0
 45 47  2  0  0  0
 47 48  1  0  0  0
 49 50  1  0  0  0
 49 51  2  0  0  0
 51 52  1  0  0  0
M  END
> <s_m_source_file>
ligprep_cdk8.smi

> <i_m_source_file_index>
26

> <i_lp_mmshare_version>
53161

> <i_f3d_flags>
0

> <s_epik_input>
W0NIM11uMW5bY0hdYyhbY0hdMSktYzJbY0hdW2NIXWMoW2NIXVtjSF0yKVtDSDJdYyhuW25IXTMpYyhjMzQpW2NIXWMoW2NIXVtjSF00KUMoPU8pTihbQ0gyXTUpW0NIMl1bQ0gyXUM1KEYpRg==

> <s_epik_cmdline>
J2VwaWtfcHl0aG9uJywgJy1waHQnLCAnMC4wJywgJy1waCcsICc3LjQnLCAnLXRuJywgJzgnLCAnLW1hJywgJzUwMCcsICctaW1hZScsICc8aW5maWxlLm1hZT4nLCAnLW9tYWUnLCAnPG91dGZpbGUubWFlPic=

> <r_lp_tautomer_probability>
1

> <r_epik_Ionization_Penalty>
  0.0001

> <r_epik_Ionization_Penalty_Charging>
  0.0000

> <r_epik_Ionization_Penalty_Neutral>
  0.0001

> <r_epik_State_Penalty>
 -0.0000

> <r_epik_Charging_Adjusted_Penalty>
0

> <i_epik_Tot_Q>
0

> <i_epik_Tot_abs_Q>
0

> <s_lp_Force_Field>
S-OPLS

> <r_lp_Energy>
34.2238

> <b_lp_Chiralities_Consistent>
1

> <s_lp_Variant>
lig_38-1

> <s_i_glide_gridfile>
glide-grid_CDK8-5HNB

> <i_i_glide_lignum>
26

> <i_i_glide_rotatable_bonds>
5

> <r_i_docking_score>
-10.0332031046894

> <r_i_glide_ligand_efficiency>
-0.323651713054496

> <r_i_glide_ligand_efficiency_sa>
-1.01671322833893

> <r_i_glide_ligand_efficiency_ln>
-2.26279478085557

> <r_i_glide_gscore>
-10.0332031046894

> <r_i_glide_lipo>
-4.13837731771585

> <r_i_glide_hbond>
-0.608

> <r_i_glide_metal>
-0

> <r_i_glide_rewards>
-2.40599004993769

> <r_i_glide_evdw>
-49.1990280151367

> <r_i_glide_ecoul>
-4.7405743598938

> <r_i_glide_erotb>
0.390201817705085

> <r_i_glide_esite>
-0.1

> <r_i_glide_emodel>
-85.4965095765217

> <r_i_glide_energy>
-53.9396023750305

> <r_i_glide_einternal>
3.05373215675354

> <i_i_glide_confnum>
9

> <i_i_glide_posenum>
16

> <r_i_glide_eff_state_penalty>
-0

> <r_i_glide_rmsd>
0.0962505196075046

> <s_glide_core_constrain_type>
snapped_core_restrain

$$$$
lig_13
                    3D
 Schrodinger Suite 2022-3.
 47 50  0  0  1  0            999 V2000
   -7.5801   11.7221  -15.0111 H   0  0  0  0  0  0
   -6.9897   12.1489  -14.4068 O   0  0  0  0  0  0
   -7.0703   11.6655  -13.1309 C   0  0  0  0  0  0
   -6.4442   12.3157  -12.0307 C   0  0  0  0  0  0
   -5.6321   13.5786  -12.1948 C   0  0  0  0  0  0
   -6.0866   14.5196  -12.8474 O   0  0  0  0  0  0
   -4.4246   13.6481  -11.5888 N   0  0  0  0  0  0
   -3.5833   14.8412  -11.6637 C   0  0  0  0  0  0
   -4.0480   15.6909  -11.1597 H   0  0  0  0  0  0
   -3.4323   15.1189  -12.7092 H   0  0  0  0  0  0
   -2.2543   14.4743  -11.0013 C   0  0  0  0  0  0
   -2.2757   14.8149   -9.9651 H   0  0  0  0  0  0
   -1.3973   14.9494  -11.4800 H   0  0  0  0  0  0
   -2.2167   12.9490  -11.0158 C   0  0  2  0  0  0
   -1.6608   12.5399  -10.1696 H   0  0  0  0  0  0
   -1.6656   12.4366  -12.2103 O   0  0  0  0  0  0
   -0.8294   12.8589  -12.3650 H   0  0  0  0  0  0
   -3.6867   12.5444  -10.9712 C   0  0  0  0  0  0
   -3.8642   11.5741  -11.4367 H   0  0  0  0  0  0
   -3.9905   12.4792   -9.9276 H   0  0  0  0  0  0
   -6.6232   11.7877  -10.7293 C   0  0  0  0  0  0
   -6.2062   12.3036   -9.8786 H   0  0  0  0  0  0
   -7.2962   10.5706  -10.5025 C   0  0  0  0  0  0
   -7.5910    9.7321   -9.3736 C   0  0  0  0  0  0
   -7.2563    9.9512   -7.9210 C   0  0  0  0  0  0
   -8.0100   10.5928   -7.4663 H   0  0  0  0  0  0
   -7.3040    9.0098   -7.3719 H   0  0  0  0  0  0
   -5.8773   10.5517   -7.6998 C   0  0  0  0  0  0
   -4.7225    9.8432   -8.0931 C   0  0  0  0  0  0
   -4.8143    8.8710   -8.5558 H   0  0  0  0  0  0
   -3.4445   10.3999   -7.8893 C   0  0  0  0  0  0
   -2.5625    9.8562   -8.1919 H   0  0  0  0  0  0
   -3.3133   11.6653   -7.2905 C   0  0  0  0  0  0
   -2.3287   12.0840   -7.1418 H   0  0  0  0  0  0
   -4.4619   12.3819   -6.8980 C   0  0  0  0  0  0
   -4.3225   13.7492   -6.2627 C   0  0  0  0  0  0
   -4.2712   13.6602   -5.1777 H   0  0  0  0  0  0
   -3.4214   14.2537   -6.6119 H   0  0  0  0  0  0
   -5.1763   14.3724   -6.5204 H   0  0  0  0  0  0
   -5.7419   11.8222   -7.1011 C   0  0  0  0  0  0
   -6.6211   12.3748   -6.8049 H   0  0  0  0  0  0
   -8.2449    8.6647   -9.7617 N   0  0  0  0  0  0
   -8.4114    8.7761  -11.1030 N   0  0  0  0  0  0
   -8.9167    8.0634  -11.6186 H   0  0  0  0  0  0
   -7.8584    9.9235  -11.6303 C   0  0  0  0  0  0
   -7.7896   10.4695  -12.9201 C   0  0  0  0  0  0
   -8.2671    9.9581  -13.7409 H   0  0  0  0  0  0
  1  2  1  0  0  0
  2  3  1  0  0  0
  3 46  1  0  0  0
  3  4  2  0  0  0
  4  5  1  0  0  0
  4 21  1  0  0  0
  5  6  2  0  0  0
  5  7  1  0  0  0
  7 18  1  0  0  0
  7  8  1  0  0  0
  8  9  1  0  0  0
  8 10  1  0  0  0
  8 11  1  0  0  0
 11 12  1  0  0  0
 11 13  1  0  0  0
 11 14  1  0  0  0
 14 15  1  0  0  0
 14 16  1  0  0  0
 14 18  1  0  0  0
 16 17  1  0  0  0
 18 19  1  0  0  0
 18 20  1  0  0  0
 21 22  1  0  0  0
 21 23  2  0  0  0
 23 45  1  0  0  0
 23 24  1  0  0  0
 24 25  1  0  0  0
 24 42  2  0  0  0
 25 26  1  0  0  0
 25 27  1  0  0  0
 25 28  1  0  0  0
 28 40  1  0  0  0
 28 29  2  0  0  0
 29 30  1  0  0  0
 29 31  1  0  0  0
 31 32  1  0  0  0
 31 33  2  0  0  0
 33 34  1  0  0  0
 33 35  1  0  0  0
 35 36  1  0  0  0
 35 40  2  0  0  0
 36 37  1  0  0  0
 36 38  1  0  0  0
 36 39  1  0  0  0
 40 41  1  0  0  0
 42 43  1  0  0  0
 43 44  1  0  0  0
 43 45  1  0  0  0
 45 46  2  0  0  0
 46 47  1  0  0  0
M  END
> <s_m_source_file>
ligprep_cdk8.smi

> <i_m_source_file_index>
1

> <i_lp_mmshare_version>
53161

> <i_f3d_flags>
0

> <s_epik_input>
W09IXVtDQEhdKFtDSDJdMSlbQ0gyXVtDSDJdTjFDKD1PKWMoW2NIXTIpYyhbT0hdKVtjSF1jKGMyMylbbkhdbmMzW0NIMl1jNFtjSF1bY0hdW2NIXWMoW0NIM10pW2NIXTQ=

> <s_epik_cmdline>
J2VwaWtfcHl0aG9uJywgJy1waHQnLCAnMC4wJywgJy1waCcsICc3LjQnLCAnLXRuJywgJzgnLCAnLW1hJywgJzUwMCcsICctaW1hZScsICc8aW5maWxlLm1hZT4nLCAnLW9tYWUnLCAnPG91dGZpbGUubWFlPic=

> <r_epik_Ionization_Penalty>
  0.2111

> <r_epik_Ionization_Penalty_Charging>
  0.0000

> <r_epik_Ionization_Penalty_Neutral>
  0.2111

> <r_epik_State_Penalty>
  0.2012

> <r_epik_Charging_Adjusted_Penalty>
0.201229

> <i_epik_Tot_Q>
0

> <i_epik_Tot_abs_Q>
0

> <s_lp_Force_Field>
S-OPLS

> <r_lp_Energy>
28.3853

> <b_lp_Chiralities_Consistent>
1

> <s_lp_Variant>
lig_13-1

> <s_i_glide_gridfile>
glide-grid_CDK8-5HNB

> <i_i_glide_lignum>
1

> <i_i_glide_rotatable_bonds>
6

> <r_i_docking_score>
-10.0300621326054

> <r_i_glide_ligand_efficiency>
-0.385771620484822

> <r_i_glide_ligand_efficiency_sa>
-1.14284690774826

> <r_i_glide_ligand_efficiency_ln>
-2.35552718052415

> <r_i_glide_gscore>
-10.2312621326054

> <r_i_glide_lipo>
-3.93094552723662

> <r_i_glide_hbond>
-0.829632587221078

> <r_i_glide_metal>
-0

> <r_i_glide_rewards>
-2.51061092337645

> <r_i_glide_evdw>
-44.774055480957

> <r_i_glide_ecoul>
-9.13390445709229

> <r_i_glide_erotb>
0.648715347840464

> <r_i_glide_esite>
0

> <r_i_glide_emodel>
-88.4320002735922

> <r_i_glide_energy>
-53.9079599380493

> <r_i_glide_einternal>
0.406735897064209

> <i_i_glide_confnum>
4

> <i_i_glide_posenum>
6

> <r_i_glide_eff_state_penalty>
0.2012

> <r_i_glide_rmsd>
0.044503113113516

> <s_glide_core_constrain_type>
snapped_core_restrain

$$$$
lig_41
                    3D
 Schrodinger Suite 2022-3.
 55 59  0  0  1  0            999 V2000
   -2.0940   14.3956   -7.8003 H   0  0  0  0  0  0
   -1.6017   13.6239   -7.2266 C   0  0  0  0  0  0
   -0.3906   13.8491   -6.7320 N   0  0  0  0  0  0
   -0.0688   12.7144   -6.0644 N   0  0  0  0  0  0
    1.1957   12.6229   -5.3651 C   0  0  0  0  0  0
    1.3268   11.6198   -4.9582 H   0  0  0  0  0  0
    2.0199   12.8371   -6.0449 H   0  0  0  0  0  0
    1.2148   13.3414   -4.5452 H   0  0  0  0  0  0
   -1.0674   11.7696   -6.1429 C   0  0  0  0  0  0
   -0.9864   10.8164   -5.6488 H   0  0  0  0  0  0
   -2.0672   12.3248   -6.8862 C   0  0  0  0  0  0
   -3.3663   11.7213   -7.2183 C   0  0  0  0  0  0
   -3.4422   10.4235   -7.7718 C   0  0  0  0  0  0
   -2.5346    9.8737   -7.9804 H   0  0  0  0  0  0
   -4.6900    9.8316   -8.0456 C   0  0  0  0  0  0
   -4.7266    8.8351   -8.4599 H   0  0  0  0  0  0
   -5.8851   10.5169   -7.7457 C   0  0  0  0  0  0
   -7.2334    9.8517   -7.9879 C   0  0  0  0  0  0
   -8.0159   10.4377   -7.5059 H   0  0  0  0  0  0
   -7.2295    8.8924   -7.4690 H   0  0  0  0  0  0
   -7.5740    9.6595   -9.4434 C   0  0  0  0  0  0
   -8.2466    8.6100   -9.8517 N   0  0  0  0  0  0
   -8.4161    8.7528  -11.1901 N   0  0  0  0  0  0
   -8.9325    8.0540  -11.7148 H   0  0  0  0  0  0
   -7.8492    9.9034  -11.6988 C   0  0  0  0  0  0
   -7.2733   10.5152  -10.5542 C   0  0  0  0  0  0
   -6.5852   11.7254  -10.7494 C   0  0  0  0  0  0
   -6.1416   12.2127   -9.8955 H   0  0  0  0  0  0
   -6.4115   12.2761  -12.0371 C   0  0  0  0  0  0
   -5.5980   13.5247  -12.1904 C   0  0  0  0  0  0
   -6.0453   14.4651  -12.8445 O   0  0  0  0  0  0
   -4.4365   13.5849  -11.4988 N   0  0  0  0  0  0
   -3.9078   14.8617  -11.0123 C   0  0  0  0  0  0
   -3.8358   14.8270   -9.9235 H   0  0  0  0  0  0
   -4.5618   15.7015  -11.2462 H   0  0  0  0  0  0
   -2.5318   15.0946  -11.6256 C   0  0  0  0  0  0
   -2.0928   16.0158  -11.2571 H   0  0  0  0  0  0
   -2.6508   15.2154  -12.6977 H   0  0  0  0  0  0
   -1.5867   13.9366  -11.2919 C   0  0  0  0  0  0
   -0.6468   14.1050  -11.8040 H   0  0  0  0  0  0
   -1.3643   13.9425  -10.2248 H   0  0  0  0  0  0
   -2.1867   12.5771  -11.6800 C   0  0  0  0  0  0
   -2.2113   12.4743  -12.7658 H   0  0  0  0  0  0
   -1.5503   11.7721  -11.3123 H   0  0  0  0  0  0
   -3.6081   12.4272  -11.1131 C   0  0  0  0  0  0
   -3.5739   12.3558  -10.0267 H   0  0  0  0  0  0
   -4.0136   11.4827  -11.4745 H   0  0  0  0  0  0
   -7.0394   11.6742  -13.1502 C   0  0  0  0  0  0
   -6.9504   12.1148  -14.1328 H   0  0  0  0  0  0
   -7.7689   10.4812  -12.9779 C   0  0  0  0  0  0
   -8.2463   10.0157  -13.8273 H   0  0  0  0  0  0
   -5.8146   11.8190   -7.2061 C   0  0  0  0  0  0
   -6.7182   12.3646   -6.9754 H   0  0  0  0  0  0
   -4.5653   12.4185   -6.9578 C   0  0  0  0  0  0
   -4.5306   13.4109   -6.5337 H   0  0  0  0  0  0
  1  2  1  0  0  0
  2 11  1  0  0  0
  2  3  2  0  0  0
  3  4  1  0  0  0
  4  5  1  0  0  0
  4  9  1  0  0  0
  5  6  1  0  0  0
  5  7  1  0  0  0
  5  8  1  0  0  0
  9 10  1  0  0  0
  9 11  2  0  0  0
 11 12  1  0  0  0
 12 54  1  0  0  0
 12 13  2  0  0  0
 13 14  1  0  0  0
 13 15  1  0  0  0
 15 16  1  0  0  0
 15 17  2  0  0  0
 17 18  1  0  0  0
 17 52  1  0  0  0
 18 19  1  0  0  0
 18 20  1  0  0  0
 18 21  1  0  0  0
 21 26  1  0  0  0
 21 22  2  0  0  0
 22 23  1  0  0  0
 23 24  1  0  0  0
 23 25  1  0  0  0
 25 50  1  0  0  0
 25 26  2  0  0  0
 26 27  1  0  0  0
 27 28  1  0  0  0
 27 29  2  0  0  0
 29 30  1  0  0  0
 29 48  1  0  0  0
 30 31  2  0  0  0
 30 32  1  0  0  0
 32 45  1  0  0  0
 32 33  1  0  0  0
 33 34  1  0  0  0
 33 35  1  0  0  0
 33 36  1  0  0  0
 36 37  1  0  0  0
 36 38  1  0  0  0
 36 39  1  0  0  0
 39 40  1  0  0  0
 39 41  1  0  0  0
 39 42  1  0  0  0
 42 43  1  0  0  0
 42 44  1  0  0  0
 42 45  1  0  0  0
 45 46  1  0  0  0
 45 47  1  0  0  0
 48 49  1  0  0  0
 48 50  2  0  0  0
 50 51  1  0  0  0
 52 53  1  0  0  0
 52 54  2  0  0  0
 54 55  1  0  0  0
M  END
> <s_m_source_file>
ligprep_cdk8.smi

> <i_m_source_file_index>
29

> <i_lp_mmshare_version>
53161

> <i_f3d_flags>
0

> <s_epik_input>
W0NIM11uMW5bY0hdYyhbY0hdMSktYzJbY0hdW2NIXWMoW2NIXVtjSF0yKVtDSDJdYyhuW25IXTMpYyhjMzQpW2NIXWMoW2NIXVtjSF00KUMoPU8pTjVbQ0gyXVtDSDJdW0NIMl1bQ0gyXVtDSDJdNQ==

> <s_epik_cmdline>
J2VwaWtfcHl0aG9uJywgJy1waHQnLCAnMC4wJywgJy1waCcsICc3LjQnLCAnLXRuJywgJzgnLCAnLW1hJywgJzUwMCcsICctaW1hZScsICc8aW5maWxlLm1hZT4nLCAnLW9tYWUnLCAnPG91dGZpbGUubWFlPic=

> <r_lp_tautomer_probability>
1

> <r_epik_Ionization_Penalty>
  0.0001

> <r_epik_Ionization_Penalty_Charging>
  0.0000

> <r_epik_Ionization_Penalty_Neutral>
  0.0001

> <r_epik_State_Penalty>
 -0.0000

> <r_epik_Charging_Adjusted_Penalty>
0

> <i_epik_Tot_Q>
0

> <i_epik_Tot_abs_Q>
0

> <s_lp_Force_Field>
S-OPLS

> <r_lp_Energy>
36.9826

> <b_lp_Chiralities_Consistent>
1

> <s_lp_Variant>
lig_41-1

> <s_i_glide_gridfile>
glide-grid_CDK8-5HNB

> <i_i_glide_lignum>
29

> <i_i_glide_rotatable_bonds>
5

> <r_i_docking_score>
-10.0213880314574

> <r_i_glide_ligand_efficiency>
-0.334046267715245

> <r_i_glide_ligand_efficiency_sa>
-1.03795942036061

> <r_i_glide_ligand_efficiency_ln>
-2.27696855251529

> <r_i_glide_gscore>
-10.0213880314574

> <r_i_glide_lipo>
-4.32797494220111

> <r_i_glide_hbond>
-0.608

> <r_i_glide_metal>
-0

> <r_i_glide_rewards>
-2.22873012526393

> <r_i_glide_evdw>
-48.7857666015625

> <r_i_glide_ecoul>
-5.64755868911743

> <r_i_glide_erotb>
0.429739169453411

> <r_i_glide_esite>
0

> <r_i_glide_emodel>
-79.5433303547196

> <r_i_glide_energy>
-54.4333252906799

> <r_i_glide_einternal>
4.7703332901001

> <i_i_glide_confnum>
29

> <i_i_glide_posenum>
29

> <r_i_glide_eff_state_penalty>
-0

> <r_i_glide_rmsd>
0.0923259958460218

> <s_glide_core_constrain_type>
snapped_core_restrain

$$$$
lig_21
                    3D
 Schrodinger Suite 2022-3.
 48 52  0  0  1  0            999 V2000
   -2.5669   14.6398   -6.8384 H   0  0  0  0  0  0
   -1.8781   13.8187   -6.7122 C   0  0  0  0  0  0
   -0.6477   14.0729   -6.2894 N   0  0  0  0  0  0
   -0.0576   12.8599   -6.1960 N   0  0  0  0  0  0
    1.2990   12.7576   -5.6984 C   0  0  0  0  0  0
    1.2991   12.8417   -4.6116 H   0  0  0  0  0  0
    1.9117   13.5562   -6.1130 H   0  0  0  0  0  0
    1.7276   11.7951   -5.9787 H   0  0  0  0  0  0
   -0.9035   11.8430   -6.5844 C   0  0  0  0  0  0
   -0.5922   10.8160   -6.5591 H   0  0  0  0  0  0
   -2.0994   12.4228   -6.8892 C   0  0  0  0  0  0
   -3.3727   11.7573   -7.2310 C   0  0  0  0  0  0
   -3.4317   10.4669   -7.8006 C   0  0  0  0  0  0
   -2.5188    9.9404   -8.0415 H   0  0  0  0  0  0
   -4.6753    9.8468   -8.0468 C   0  0  0  0  0  0
   -4.7015    8.8570   -8.4803 H   0  0  0  0  0  0
   -5.8795   10.5030   -7.7140 C   0  0  0  0  0  0
   -7.2250    9.8414   -7.9540 C   0  0  0  0  0  0
   -7.2195    8.8821   -7.4343 H   0  0  0  0  0  0
   -8.0104   10.4282   -7.4763 H   0  0  0  0  0  0
   -7.5577    9.6441   -9.4077 C   0  0  0  0  0  0
   -8.2464    8.6016   -9.8065 N   0  0  0  0  0  0
   -8.4308    8.7468  -11.1422 N   0  0  0  0  0  0
   -8.9674    8.0583  -11.6609 H   0  0  0  0  0  0
   -7.8692    9.8973  -11.6538 C   0  0  0  0  0  0
   -7.2504   10.4930  -10.5229 C   0  0  0  0  0  0
   -6.5312   11.6847  -10.7355 C   0  0  0  0  0  0
   -6.0199   12.1500   -9.9070 H   0  0  0  0  0  0
   -6.4496   12.2689  -12.0132 C   0  0  0  0  0  0
   -5.5963   13.4315  -12.1699 C   0  0  0  0  0  0
   -4.3230   13.6053  -11.6806 C   0  0  0  0  0  0
   -3.6830   12.9468  -11.1106 H   0  0  0  0  0  0
   -3.9204   14.8599  -12.0827 N   0  0  0  0  0  0
   -2.6479   15.4729  -11.8552 C   0  0  0  0  0  0
   -2.6392   16.4152  -12.4152 H   0  0  0  0  0  0
   -2.5052   15.6212  -10.7863 H   0  0  0  0  0  0
   -1.8556   14.8147  -12.2126 H   0  0  0  0  0  0
   -4.9511   15.3805  -12.7508 C   0  0  0  0  0  0
   -4.9268   16.3703  -13.1811 H   0  0  0  0  0  0
   -5.9966   14.5762  -12.8462 N   0  0  0  0  0  0
   -7.1207   11.6871  -13.1088 C   0  0  0  0  0  0
   -7.0614   12.1414  -14.0876 H   0  0  0  0  0  0
   -7.8323   10.4851  -12.9298 C   0  0  0  0  0  0
   -8.3335   10.0185  -13.7647 H   0  0  0  0  0  0
   -5.8298   11.7872   -7.1428 C   0  0  0  0  0  0
   -6.7399   12.3056   -6.8807 H   0  0  0  0  0  0
   -4.5900   12.4038   -6.9080 C   0  0  0  0  0  0
   -4.5817   13.3828   -6.4520 H   0  0  0  0  0  0
  1  2  1  0  0  0
  2 11  1  0  0  0
  2  3  2  0  0  0
  3  4  1  0  0  0
  4  5  1  0  0  0
  4  9  1  0  0  0
  5  6  1  0  0  0
  5  7  1  0  0  0
  5  8  1  0  0  0
  9 10  1  0  0  0
  9 11  2  0  0  0
 11 12  1  0  0  0
 12 47  1  0  0  0
 12 13  2  0  0  0
 13 14  1  0  0  0
 13 15  1  0  0  0
 15 16  1  0  0  0
 15 17  2  0  0  0
 17 18  1  0  0  0
 17 45  1  0  0  0
 18 19  1  0  0  0
 18 20  1  0  0  0
 18 21  1  0  0  0
 21 26  1  0  0  0
 21 22  2  0  0  0
 22 23  1  0  0  0
 23 24  1  0  0  0
 23 25  1  0  0  0
 25 43  1  0  0  0
 25 26  2  0  0  0
 26 27  1  0  0  0
 27 28  1  0  0  0
 27 29  2  0  0  0
 29 30  1  0  0  0
 29 41  1  0  0  0
 30 40  1  0  0  0
 30 31  2  0  0  0
 31 32  1  0  0  0
 31 33  1  0  0  0
 33 34  1  0  0  0
 33 38  1  0  0  0
 34 35  1  0  0  0
 34 36  1  0  0  0
 34 37  1  0  0  0
 38 39  1  0  0  0
 38 40  2  0  0  0
 41 42  1  0  0  0
 41 43  2  0  0  0
 43 44  1  0  0  0
 45 46  1  0  0  0
 45 47  2  0  0  0
 47 48  1  0  0  0
M  END
> <s_m_source_file>
ligprep_cdk8.smi

> <i_m_source_file_index>
9

> <i_lp_mmshare_version>
53161

> <i_f3d_flags>
0

> <s_epik_input>
W0NIM11uMW5bY0hdYyhbY0hdMSktYzJbY0hdW2NIXWMoW2NIXVtjSF0yKVtDSDJdYyhuW25IXTMpYyhjMzQpW2NIXWMoW2NIXVtjSF00KS1jNVtjSF1uKFtDSDNdKVtjSF1uNQ==

> <s_epik_cmdline>
J2VwaWtfcHl0aG9uJywgJy1waHQnLCAnMC4wJywgJy1waCcsICc3LjQnLCAnLXRuJywgJzgnLCAnLW1hJywgJzUwMCcsICctaW1hZScsICc8aW5maWxlLm1hZT4nLCAnLW9tYWUnLCAnPG91dGZpbGUubWFlPic=

> <r_lp_tautomer_probability>
0.980392

> <r_epik_Ionization_Penalty>
  0.1120

> <r_epik_Ionization_Penalty_Charging>
  0.1120

> <r_epik_Ionization_Penalty_Neutral>
  0.0001

> <r_epik_State_Penalty>
  0.1017

> <r_epik_Charging_Adjusted_Penalty>
0.213634

> <i_epik_Tot_Q>
0

> <i_epik_Tot_abs_Q>
0

> <s_lp_Force_Field>
S-OPLS

> <r_lp_Energy>
29.9273

> <b_lp_Chiralities_Consistent>
1

> <s_lp_Variant>
lig_21-1

> <s_i_glide_gridfile>
glide-grid_CDK8-5HNB

> <i_i_glide_lignum>
9

> <i_i_glide_rotatable_bonds>
4

> <r_i_docking_score>
-9.9845895897125

> <r_i_glide_ligand_efficiency>
-0.356592485346875

> <r_i_glide_ligand_efficiency_sa>
-1.08282480725532

> <r_i_glide_ligand_efficiency_ln>
-2.30473643759461

> <r_i_glide_gscore>
-10.0862895897125

> <r_i_glide_lipo>
-4.17533842416294

> <r_i_glide_hbond>
-0.608

> <r_i_glide_metal>
-0

> <r_i_glide_rewards>
-2.49584691149829

> <r_i_glide_evdw>
-45.6172294616699

> <r_i_glide_ecoul>
-6.15815114974976

> <r_i_glide_erotb>
0.39747989149469

> <r_i_glide_esite>
0

> <r_i_glide_emodel>
-64.0995096282487

> <r_i_glide_energy>
-51.7753806114197

> <r_i_glide_einternal>
5.73489713668823

> <i_i_glide_confnum>
6

> <i_i_glide_posenum>
5

> <r_i_glide_eff_state_penalty>
0.1017

> <r_i_glide_rmsd>
0.0922281144751098

> <s_glide_core_constrain_type>
snapped_core_restrain

$$$$
lig_22
                    3D
 Schrodinger Suite 2022-3.
 48 52  0  0  1  0            999 V2000
   -2.0221   14.3757   -7.8249 H   0  0  0  0  0  0
   -1.5329   13.6065   -7.2455 C   0  0  0  0  0  0
   -0.3241   13.8373   -6.7486 N   0  0  0  0  0  0
   -0.0087   12.7114   -6.0651 N   0  0  0  0  0  0
    1.2434   12.6329   -5.3422 C   0  0  0  0  0  0
    1.2428   11.7617   -4.6861 H   0  0  0  0  0  0
    1.3748   13.5289   -4.7348 H   0  0  0  0  0  0
    2.0729   12.5459   -6.0429 H   0  0  0  0  0  0
   -1.0045   11.7632   -6.1471 C   0  0  0  0  0  0
   -0.9241   10.8166   -5.6461 H   0  0  0  0  0  0
   -2.0061   12.3132   -6.8901 C   0  0  0  0  0  0
   -3.3173   11.7223   -7.2027 C   0  0  0  0  0  0
   -4.4969   12.4240   -6.8731 C   0  0  0  0  0  0
   -4.4319   13.4021   -6.4154 H   0  0  0  0  0  0
   -5.7636   11.8586   -7.1138 C   0  0  0  0  0  0
   -6.6525   12.4091   -6.8447 H   0  0  0  0  0  0
   -5.8683   10.5805   -7.7000 C   0  0  0  0  0  0
   -7.2353    9.9578   -7.9355 C   0  0  0  0  0  0
   -7.2607    9.0046   -7.4054 H   0  0  0  0  0  0
   -7.9985   10.5764   -7.4626 H   0  0  0  0  0  0
   -7.5752    9.7587   -9.3877 C   0  0  0  0  0  0
   -8.2465    8.7030   -9.7822 N   0  0  0  0  0  0
   -8.4022    8.8201  -11.1253 N   0  0  0  0  0  0
   -8.9204    8.1198  -11.6456 H   0  0  0  0  0  0
   -7.8315    9.9666  -11.6433 C   0  0  0  0  0  0
   -7.2639   10.6012  -10.5077 C   0  0  0  0  0  0
   -6.5711   11.8121  -10.7175 C   0  0  0  0  0  0
   -6.1785   12.3097   -9.8500 H   0  0  0  0  0  0
   -6.3638   12.3423  -12.0106 C   0  0  0  0  0  0
   -5.5060   13.5199  -12.2292 C   0  0  0  0  0  0
   -5.6210   14.2693  -13.3278 N   0  0  0  0  0  0
   -4.6455   15.2479  -13.2276 C   0  0  0  0  0  0
   -4.4725   15.9767  -14.0020 H   0  0  0  0  0  0
   -3.9611   15.0879  -12.0580 C   0  0  0  0  0  0
   -3.1260   15.6419  -11.6525 H   0  0  0  0  0  0
   -4.5001   13.9767  -11.4336 N   0  0  0  0  0  0
   -3.9860   13.4682  -10.1772 C   0  0  0  0  0  0
   -2.9769   13.8448  -10.0104 H   0  0  0  0  0  0
   -4.6173   13.8150   -9.3592 H   0  0  0  0  0  0
   -3.9394   12.3797  -10.1901 H   0  0  0  0  0  0
   -6.9831   11.7002  -13.1126 C   0  0  0  0  0  0
   -6.8762   12.1005  -14.1104 H   0  0  0  0  0  0
   -7.7357   10.5225  -12.9286 C   0  0  0  0  0  0
   -8.2104   10.0396  -13.7703 H   0  0  0  0  0  0
   -4.6937    9.8801   -8.0456 C   0  0  0  0  0  0
   -4.7592    8.8972   -8.4895 H   0  0  0  0  0  0
   -3.4279   10.4404   -7.7825 C   0  0  0  0  0  0
   -2.5347    9.8831   -8.0251 H   0  0  0  0  0  0
  1  2  1  0  0  0
  2 11  1  0  0  0
  2  3  2  0  0  0
  3  4  1  0  0  0
  4  5  1  0  0  0
  4  9  1  0  0  0
  5  6  1  0  0  0
  5  7  1  0  0  0
  5  8  1  0  0  0
  9 10  1  0  0  0
  9 11  2  0  0  0
 11 12  1  0  0  0
 12 47  1  0  0  0
 12 13  2  0  0  0
 13 14  1  0  0  0
 13 15  1  0  0  0
 15 16  1  0  0  0
 15 17  2  0  0  0
 17 18  1  0  0  0
 17 45  1  0  0  0
 18 19  1  0  0  0
 18 20  1  0  0  0
 18 21  1  0  0  0
 21 26  1  0  0  0
 21 22  2  0  0  0
 22 23  1  0  0  0
 23 24  1  0  0  0
 23 25  1  0  0  0
 25 43  1  0  0  0
 25 26  2  0  0  0
 26 27  1  0  0  0
 27 28  1  0  0  0
 27 29  2  0  0  0
 29 30  1  0  0  0
 29 41  1  0  0  0
 30 36  1  0  0  0
 30 31  2  0  0  0
 31 32  1  0  0  0
 32 33  1  0  0  0
 32 34  2  0  0  0
 34 35  1  0  0  0
 34 36  1  0  0  0
 36 37  1  0  0  0
 37 38  1  0  0  0
 37 39  1  0  0  0
 37 40  1  0  0  0
 41 42  1  0  0  0
 41 43  2  0  0  0
 43 44  1  0  0  0
 45 46  1  0  0  0
 45 47  2  0  0  0
 47 48  1  0  0  0
M  END
> <s_m_source_file>
ligprep_cdk8.smi

> <i_m_source_file_index>
10

> <i_lp_mmshare_version>
53161

> <i_f3d_flags>
0

> <s_epik_input>
W0NIM11uMW5bY0hdYyhbY0hdMSktYzJbY0hdW2NIXWMoW2NIXVtjSF0yKVtDSDJdYyhuW25IXTMpYyhjMzQpW2NIXWMoW2NIXVtjSF00KS1jNW5bY0hdW2NIXW41W0NIM10=

> <s_epik_cmdline>
J2VwaWtfcHl0aG9uJywgJy1waHQnLCAnMC4wJywgJy1waCcsICc3LjQnLCAnLXRuJywgJzgnLCAnLW1hJywgJzUwMCcsICctaW1hZScsICc8aW5maWxlLm1hZT4nLCAnLW9tYWUnLCAnPG91dGZpbGUubWFlPic=

> <r_lp_tautomer_probability>
0.980392

> <r_epik_Ionization_Penalty>
  0.1120

> <r_epik_Ionization_Penalty_Charging>
  0.1120

> <r_epik_Ionization_Penalty_Neutral>
  0.0001

> <r_epik_State_Penalty>
  0.1017

> <r_epik_Charging_Adjusted_Penalty>
0.213634

> <i_epik_Tot_Q>
0

> <i_epik_Tot_abs_Q>
0

> <s_lp_Force_Field>
S-OPLS

> <r_lp_Energy>
30.8258

> <b_lp_Chiralities_Consistent>
1

> <s_lp_Variant>
lig_22-1

> <s_i_glide_gridfile>
glide-grid_CDK8-5HNB

> <i_i_glide_lignum>
10

> <i_i_glide_rotatable_bonds>
4

> <r_i_docking_score>
-9.84548186131687

> <r_i_glide_ligand_efficiency>
-0.351624352189888

> <r_i_glide_ligand_efficiency_sa>
-1.06773862891676

> <r_i_glide_ligand_efficiency_ln>
-2.27262628950051

> <r_i_glide_gscore>
-9.94718186131687

> <r_i_glide_lipo>
-3.99251666071603

> <r_i_glide_hbond>
-0.56523639162735

> <r_i_glide_metal>
-0

> <r_i_glide_rewards>
-2.69622600317204

> <r_i_glide_evdw>
-47.6268653869629

> <r_i_glide_ecoul>
-4.72892951965332

> <r_i_glide_erotb>
0.39747989149469

> <r_i_glide_esite>
0

> <r_i_glide_emodel>
-80.7733169406705

> <r_i_glide_energy>
-52.3557949066162

> <r_i_glide_einternal>
4.01815843582153

> <i_i_glide_confnum>
4

> <i_i_glide_posenum>
3

> <r_i_glide_eff_state_penalty>
0.1017

> <r_i_glide_rmsd>
0.0769280355826053

> <s_glide_core_constrain_type>
snapped_core_restrain

$$$$
lig_39
                    3D
 Schrodinger Suite 2022-3.
 53 57  0  0  1  0            999 V2000
   -1.9927   14.3480   -7.9347 H   0  0  0  0  0  0
   -1.5260   13.5892   -7.3231 C   0  0  0  0  0  0
   -0.3177   13.8076   -6.8170 N   0  0  0  0  0  0
   -0.0256   12.6921   -6.1060 N   0  0  0  0  0  0
    1.2195   12.6056   -5.3703 C   0  0  0  0  0  0
    1.2910   11.6386   -4.8687 H   0  0  0  0  0  0
    2.0695   12.7154   -6.0451 H   0  0  0  0  0  0
    1.2594   13.3932   -4.6170 H   0  0  0  0  0  0
   -1.0398   11.7609   -6.1721 C   0  0  0  0  0  0
   -0.9827   10.8163   -5.6602 H   0  0  0  0  0  0
   -2.0250   12.3146   -6.9339 C   0  0  0  0  0  0
   -3.3354   11.7225   -7.2463 C   0  0  0  0  0  0
   -4.5279   12.4302   -6.9870 C   0  0  0  0  0  0
   -4.4808   13.4276   -6.5759 H   0  0  0  0  0  0
   -5.7832   11.8363   -7.2230 C   0  0  0  0  0  0
   -6.6796   12.3901   -6.9917 H   0  0  0  0  0  0
   -5.8653   10.5314   -7.7549 C   0  0  0  0  0  0
   -7.2172    9.8800   -7.9971 C   0  0  0  0  0  0
   -7.9940   10.4698   -7.5091 H   0  0  0  0  0  0
   -7.2190    8.9136   -7.4900 H   0  0  0  0  0  0
   -7.5632    9.7036   -9.4531 C   0  0  0  0  0  0
   -8.2464    8.6624   -9.8624 N   0  0  0  0  0  0
   -8.4247    8.8155  -11.1996 N   0  0  0  0  0  0
   -8.9514    8.1273  -11.7267 H   0  0  0  0  0  0
   -7.8463    9.9617  -11.7053 C   0  0  0  0  0  0
   -7.2595   10.5626  -10.5612 C   0  0  0  0  0  0
   -6.5611   11.7693  -10.7571 C   0  0  0  0  0  0
   -6.1105   12.2506   -9.9040 H   0  0  0  0  0  0
   -6.3938   12.3286  -12.0435 C   0  0  0  0  0  0
   -5.5892   13.5874  -12.1884 C   0  0  0  0  0  0
   -6.0371   14.5262  -12.8454 O   0  0  0  0  0  0
   -4.4354   13.6601  -11.4902 N   0  0  0  0  0  0
   -3.8873   14.9259  -11.0053 C   0  0  0  0  0  0
   -3.8110   14.8970   -9.9175 H   0  0  0  0  0  0
   -4.5216   15.7780  -11.2527 H   0  0  0  0  0  0
   -2.5069   15.1027  -11.6265 C   0  0  0  0  0  0
   -2.6465   15.1881  -12.7019 H   0  0  0  0  0  0
   -2.0325   16.0163  -11.2824 H   0  0  0  0  0  0
   -1.6742   14.0101  -11.2461 O   0  0  0  0  0  0
   -2.1686   12.7444  -11.6651 C   0  0  0  0  0  0
   -2.1589   12.6832  -12.7532 H   0  0  0  0  0  0
   -1.4953   11.9691  -11.2995 H   0  0  0  0  0  0
   -3.5862   12.5242  -11.1111 C   0  0  0  0  0  0
   -3.9584   11.5738  -11.4930 H   0  0  0  0  0  0
   -3.5613   12.4418  -10.0257 H   0  0  0  0  0  0
   -7.0300   11.7287  -13.1517 C   0  0  0  0  0  0
   -6.9469   12.1732  -14.1356 H   0  0  0  0  0  0
   -7.7643   10.5397  -12.9834 C   0  0  0  0  0  0
   -8.2466   10.0710  -13.8291 H   0  0  0  0  0  0
   -4.6782    9.8312   -8.0455 C   0  0  0  0  0  0
   -4.7238    8.8302   -8.4510 H   0  0  0  0  0  0
   -3.4247   10.4183   -7.7790 C   0  0  0  0  0  0
   -2.5212    9.8598   -7.9820 H   0  0  0  0  0  0
  1  2  1  0  0  0
  2 11  1  0  0  0
  2  3  2  0  0  0
  3  4  1  0  0  0
  4  5  1  0  0  0
  4  9  1  0  0  0
  5  6  1  0  0  0
  5  7  1  0  0  0
  5  8  1  0  0  0
  9 10  1  0  0  0
  9 11  2  0  0  0
 11 12  1  0  0  0
 12 52  1  0  0  0
 12 13  2  0  0  0
 13 14  1  0  0  0
 13 15  1  0  0  0
 15 16  1  0  0  0
 15 17  2  0  0  0
 17 18  1  0  0  0
 17 50  1  0  0  0
 18 19  1  0  0  0
 18 20  1  0  0  0
 18 21  1  0  0  0
 21 26  1  0  0  0
 21 22  2  0  0  0
 22 23  1  0  0  0
 23 24  1  0  0  0
 23 25  1  0  0  0
 25 48  1  0  0  0
 25 26  2  0  0  0
 26 27  1  0  0  0
 27 28  1  0  0  0
 27 29  2  0  0  0
 29 30  1  0  0  0
 29 46  1  0  0  0
 30 31  2  0  0  0
 30 32  1  0  0  0
 32 43  1  0  0  0
 32 33  1  0  0  0
 33 34  1  0  0  0
 33 35  1  0  0  0
 33 36  1  0  0  0
 36 37  1  0  0  0
 36 38  1  0  0  0
 36 39  1  0  0  0
 39 40  1  0  0  0
 40 41  1  0  0  0
 40 42  1  0  0  0
 40 43  1  0  0  0
 43 44  1  0  0  0
 43 45  1  0  0  0
 46 47  1  0  0  0
 46 48  2  0  0  0
 48 49  1  0  0  0
 50 51  1  0  0  0
 50 52  2  0  0  0
 52 53  1  0  0  0
M  END
> <s_m_source_file>
ligprep_cdk8.smi

> <i_m_source_file_index>
27

> <i_lp_mmshare_version>
53161

> <i_f3d_flags>
0

> <s_epik_input>
W0NIM11uMW5bY0hdYyhbY0hdMSktYzJbY0hdW2NIXWMoW2NIXVtjSF0yKVtDSDJdYyhuW25IXTMpYyhjMzQpW2NIXWMoW2NIXVtjSF00KUMoPU8pTjVbQ0gyXVtDSDJdT1tDSDJdW0NIMl01

> <s_epik_cmdline>
J2VwaWtfcHl0aG9uJywgJy1waHQnLCAnMC4wJywgJy1waCcsICc3LjQnLCAnLXRuJywgJzgnLCAnLW1hJywgJzUwMCcsICctaW1hZScsICc8aW5maWxlLm1hZT4nLCAnLW9tYWUnLCAnPG91dGZpbGUubWFlPic=

> <r_lp_tautomer_probability>
1

> <r_epik_Ionization_Penalty>
  0.0001

> <r_epik_Ionization_Penalty_Charging>
  0.0000

> <r_epik_Ionization_Penalty_Neutral>
  0.0001

> <r_epik_State_Penalty>
 -0.0000

> <r_epik_Charging_Adjusted_Penalty>
0

> <i_epik_Tot_Q>
0

> <i_epik_Tot_abs_Q>
0

> <s_lp_Force_Field>
S-OPLS

> <r_lp_Energy>
36.7731

> <b_lp_Chiralities_Consistent>
1

> <s_lp_Variant>
lig_39-1

> <s_i_glide_gridfile>
glide-grid_CDK8-5HNB

> <i_i_glide_lignum>
27

> <i_i_glide_rotatable_bonds>
5

> <r_i_docking_score>
-9.79399174111299

> <r_i_glide_ligand_efficiency>
-0.326466391370433

> <r_i_glide_ligand_efficiency_sa>
-1.0144069822176

> <r_i_glide_ligand_efficiency_ln>
-2.22530163766802

> <r_i_glide_gscore>
-9.79399174111299

> <r_i_glide_lipo>
-4.26638157154162

> <r_i_glide_hbond>
-0.59016212800495

> <r_i_glide_metal>
-0

> <r_i_glide_rewards>
-2.23530441649015

> <r_i_glide_evdw>
-49.911434173584

> <r_i_glide_ecoul>
-4.2167797088623

> <r_i_glide_erotb>
0.425945039932287

> <r_i_glide_esite>
0

> <r_i_glide_emodel>
-80.6828683921534

> <r_i_glide_energy>
-54.1282138824463

> <r_i_glide_einternal>
4.64734268188477

> <i_i_glide_confnum>
9

> <i_i_glide_posenum>
30

> <r_i_glide_eff_state_penalty>
-0

> <r_i_glide_rmsd>
0.0944671442385704

> <s_glide_core_constrain_type>
snapped_core_restrain

$$$$
lig_43
                    3D
 Schrodinger Suite 2022-3.
 48 52  0  0  1  0            999 V2000
   -4.5028   14.4154   -5.8316 H   0  0  0  0  0  0
   -3.9681   13.5959   -6.2836 C   0  0  0  0  0  0
   -2.6576   13.6299   -6.3347 N   0  0  0  0  0  0
   -2.2755   12.4714   -6.9363 N   0  0  0  0  0  0
   -0.8639   12.2171   -7.1404 C   0  0  0  0  0  0
   -0.7284   11.5567   -7.9965 H   0  0  0  0  0  0
   -0.3343   13.1496   -7.3353 H   0  0  0  0  0  0
   -0.4449   11.7374   -6.2557 H   0  0  0  0  0  0
   -3.3468   11.6575   -7.2677 C   0  0  0  0  0  0
   -4.4907   12.3957   -6.8605 C   0  0  0  0  0  0
   -5.7606   11.8185   -7.0938 C   0  0  0  0  0  0
   -6.6462   12.3683   -6.8130 H   0  0  0  0  0  0
   -5.8813   10.5420   -7.6916 C   0  0  0  0  0  0
   -7.2522    9.9293   -7.9282 C   0  0  0  0  0  0
   -8.0152   10.5482   -7.4596 H   0  0  0  0  0  0
   -7.2871    8.9754   -7.4021 H   0  0  0  0  0  0
   -7.5851    9.7351   -9.3841 C   0  0  0  0  0  0
   -8.2448    8.6804   -9.7959 N   0  0  0  0  0  0
   -8.3968    8.8098  -11.1372 N   0  0  0  0  0  0
   -8.9049    8.1051  -11.6608 H   0  0  0  0  0  0
   -7.8273    9.9581  -11.6440 C   0  0  0  0  0  0
   -7.2711   10.5887  -10.4976 C   0  0  0  0  0  0
   -6.5825   11.8034  -10.7008 C   0  0  0  0  0  0
   -6.1689   12.3064   -9.8396 H   0  0  0  0  0  0
   -6.3931   12.3354  -11.9986 C   0  0  0  0  0  0
   -5.5630   13.5735  -12.2109 C   0  0  0  0  0  0
   -5.9833   14.4720  -12.9357 O   0  0  0  0  0  0
   -4.3598   13.6463  -11.6038 N   0  0  0  0  0  0
   -3.6278   12.5375  -10.9914 C   0  0  0  0  0  0
   -3.7722   11.5922  -11.5114 H   0  0  0  0  0  0
   -3.9543   12.4144   -9.9619 H   0  0  0  0  0  0
   -2.1630   12.9649  -11.0033 C   0  0  0  0  0  0
   -1.7091   12.6998  -11.9626 H   0  0  0  0  0  0
   -1.5682   12.4979  -10.2141 H   0  0  0  0  0  0
   -2.2582   14.4799  -10.8724 C   0  0  0  0  0  0
   -2.4408   14.7982   -9.5925 F   0  0  0  0  0  0
   -1.1699   15.0975  -11.3208 F   0  0  0  0  0  0
   -3.5173   14.8395  -11.6604 C   0  0  0  0  0  0
   -4.0223   15.7107  -11.2453 H   0  0  0  0  0  0
   -3.2824   15.0619  -12.7005 H   0  0  0  0  0  0
   -7.0125   11.7109  -13.1049 C   0  0  0  0  0  0
   -6.9146   12.1386  -14.0925 H   0  0  0  0  0  0
   -7.7339   10.5144  -12.9295 C   0  0  0  0  0  0
   -8.1891   10.0260  -13.7786 H   0  0  0  0  0  0
   -4.7239    9.8268   -8.0675 C   0  0  0  0  0  0
   -4.8099    8.8453   -8.5139 H   0  0  0  0  0  0
   -3.4517   10.3895   -7.8637 C   0  0  0  0  0  0
   -2.5579    9.8511   -8.1502 H   0  0  0  0  0  0
  1  2  1  0  0  0
  2 10  1  0  0  0
  2  3  2  0  0  0
  3  4  1  0  0  0
  4  5  1  0  0  0
  4  9  1  0  0  0
  5  6  1  0  0  0
  5  7  1  0  0  0
  5  8  1  0  0  0
  9 47  1  0  0  0
  9 10  2  0  0  0
 10 11  1  0  0  0
 11 12  1  0  0  0
 11 13  2  0  0  0
 13 14  1  0  0  0
 13 45  1  0  0  0
 14 15  1  0  0  0
 14 16  1  0  0  0
 14 17  1  0  0  0
 17 22  1  0  0  0
 17 18  2  0  0  0
 18 19  1  0  0  0
 19 20  1  0  0  0
 19 21  1  0  0  0
 21 43  1  0  0  0
 21 22  2  0  0  0
 22 23  1  0  0  0
 23 24  1  0  0  0
 23 25  2  0  0  0
 25 26  1  0  0  0
 25 41  1  0  0  0
 26 27  2  0  0  0
 26 28  1  0  0  0
 28 38  1  0  0  0
 28 29  1  0  0  0
 29 30  1  0  0  0
 29 31  1  0  0  0
 29 32  1  0  0  0
 32 33  1  0  0  0
 32 34  1  0  0  0
 32 35  1  0  0  0
 35 36  1  0  0  0
 35 37  1  0  0  0
 35 38  1  0  0  0
 38 39  1  0  0  0
 38 40  1  0  0  0
 41 42  1  0  0  0
 41 43  2  0  0  0
 43 44  1  0  0  0
 45 46  1  0  0  0
 45 47  2  0  0  0
 47 48  1  0  0  0
M  END
> <s_m_source_file>
ligprep_cdk8.smi

> <i_m_source_file_index>
31

> <i_lp_mmshare_version>
53161

> <i_f3d_flags>
0

> <s_epik_input>
W0NIM11uMW5bY0hdYyhjMTIpW2NIXWMoW2NIXVtjSF0yKVtDSDJdYyhuW25IXTMpYyhjMzQpW2NIXWMoW2NIXVtjSF00KUMoPU8pTihbQ0gyXTUpW0NIMl1bQ0gyXUM1KEYpRg==

> <s_epik_cmdline>
J2VwaWtfcHl0aG9uJywgJy1waHQnLCAnMC4wJywgJy1waCcsICc3LjQnLCAnLXRuJywgJzgnLCAnLW1hJywgJzUwMCcsICctaW1hZScsICc8aW5maWxlLm1hZT4nLCAnLW9tYWUnLCAnPG91dGZpbGUubWFlPic=

> <r_lp_tautomer_probability>
1

> <r_epik_Ionization_Penalty>
  0.0000

> <r_epik_Ionization_Penalty_Charging>
  0.0000

> <r_epik_Ionization_Penalty_Neutral>
  0.0000

> <r_epik_State_Penalty>
 -0.0000

> <r_epik_Charging_Adjusted_Penalty>
0

> <i_epik_Tot_Q>
0

> <i_epik_Tot_abs_Q>
0

> <s_lp_Force_Field>
S-OPLS

> <r_lp_Energy>
33.3937

> <b_lp_Chiralities_Consistent>
1

> <s_lp_Variant>
lig_43-1

> <s_i_glide_gridfile>
glide-grid_CDK8-5HNB

> <i_i_glide_lignum>
31

> <i_i_glide_rotatable_bonds>
4

> <r_i_docking_score>
-9.78852330572557

> <r_i_glide_ligand_efficiency>
-0.33753528640433

> <r_i_glide_ligand_efficiency_sa>
-1.03701533851874

> <r_i_glide_ligand_efficiency_ln>
-2.24132362147675

> <r_i_glide_gscore>
-9.78852330572557

> <r_i_glide_lipo>
-3.92266971561526

> <r_i_glide_hbond>
-0.567565334238718

> <r_i_glide_metal>
-0

> <r_i_glide_rewards>
-2.52560009468878

> <r_i_glide_evdw>
-46.9380912780762

> <r_i_glide_ecoul>
-4.50658369064331

> <r_i_glide_erotb>
0.350203956317489

> <r_i_glide_esite>
-0.1

> <r_i_glide_emodel>
-90.2743098614997

> <r_i_glide_energy>
-51.4446749687195

> <r_i_glide_einternal>
2.67711499191137e-07

> <i_i_glide_confnum>
5

> <i_i_glide_posenum>
3

> <r_i_glide_eff_state_penalty>
-0

> <r_i_glide_rmsd>
0.0632371343164104

> <s_glide_core_constrain_type>
snapped_core_restrain

$$$$
lig_32
                    3D
 Schrodinger Suite 2022-3.
 42 45  0  0  1  0            999 V2000
   -2.3241   14.6212   -7.3668 H   0  0  0  0  0  0
   -1.7285   13.8006   -6.9928 C   0  0  0  0  0  0
   -0.5238   14.0488   -6.4977 N   0  0  0  0  0  0
   -0.0624   12.8464   -6.0813 N   0  0  0  0  0  0
    1.2208   12.7566   -5.4135 C   0  0  0  0  0  0
    1.4509   11.7154   -5.1799 H   0  0  0  0  0  0
    2.0059   13.1611   -6.0512 H   0  0  0  0  0  0
    1.1908   13.3263   -4.4831 H   0  0  0  0  0  0
   -0.9606   11.8335   -6.3405 C   0  0  0  0  0  0
   -0.7595   10.8163   -6.0596 H   0  0  0  0  0  0
   -2.0566   12.4177   -6.9029 C   0  0  0  0  0  0
   -3.3380   11.7759   -7.2456 C   0  0  0  0  0  0
   -4.5461   12.4499   -6.9551 C   0  0  0  0  0  0
   -4.5241   13.4372   -6.5188 H   0  0  0  0  0  0
   -5.7897   11.8326   -7.1818 C   0  0  0  0  0  0
   -6.6980   12.3595   -6.9311 H   0  0  0  0  0  0
   -5.8448   10.5339   -7.7240 C   0  0  0  0  0  0
   -7.1855    9.8605   -7.9567 C   0  0  0  0  0  0
   -7.9686   10.4244   -7.4490 H   0  0  0  0  0  0
   -7.1584    8.8859   -7.4648 H   0  0  0  0  0  0
   -7.5358    9.7004   -9.4090 C   0  0  0  0  0  0
   -8.2465    8.6730   -9.8063 N   0  0  0  0  0  0
   -8.4191    8.8150  -11.1417 N   0  0  0  0  0  0
   -8.9586    8.1307  -11.6593 H   0  0  0  0  0  0
   -7.8310    9.9526  -11.6544 C   0  0  0  0  0  0
   -7.2164   10.5536  -10.5231 C   0  0  0  0  0  0
   -6.4929   11.7494  -10.7378 C   0  0  0  0  0  0
   -6.0177   12.2298   -9.8977 H   0  0  0  0  0  0
   -6.3703   12.3135  -12.0278 C   0  0  0  0  0  0
   -5.5767   13.5685  -12.2278 C   0  0  0  0  0  0
   -5.9625   14.4503  -12.9863 O   0  0  0  0  0  0
   -4.4225   13.6458  -11.5637 N   0  0  0  0  0  0
   -4.1237   12.8791  -10.9797 H   0  0  0  0  0  0
   -3.8331   14.4579  -11.6814 H   0  0  0  0  0  0
   -7.0282   11.7085  -13.1223 C   0  0  0  0  0  0
   -6.9624   12.1467  -14.1079 H   0  0  0  0  0  0
   -7.7578   10.5185  -12.9376 C   0  0  0  0  0  0
   -8.2479   10.0393  -13.7730 H   0  0  0  0  0  0
   -4.6469    9.8646   -8.0458 C   0  0  0  0  0  0
   -4.6787    8.8697   -8.4637 H   0  0  0  0  0  0
   -3.4032   10.4802   -7.8064 C   0  0  0  0  0  0
   -2.4920    9.9457   -8.0369 H   0  0  0  0  0  0
  1  2  1  0  0  0
  2 11  1  0  0  0
  2  3  2  0  0  0
  3  4  1  0  0  0
  4  5  1  0  0  0
  4  9  1  0  0  0
  5  6  1  0  0  0
  5  7  1  0  0  0
  5  8  1  0  0  0
  9 10  1  0  0  0
  9 11  2  0  0  0
 11 12  1  0  0  0
 12 41  1  0  0  0
 12 13  2  0  0  0
 13 14  1  0  0  0
 13 15  1  0  0  0
 15 16  1  0  0  0
 15 17  2  0  0  0
 17 18  1  0  0  0
 17 39  1  0  0  0
 18 19  1  0  0  0
 18 20  1  0  0  0
 18 21  1  0  0  0
 21 26  1  0  0  0
 21 22  2  0  0  0
 22 23  1  0  0  0
 23 24  1  0  0  0
 23 25  1  0  0  0
 25 37  1  0  0  0
 25 26  2  0  0  0
 26 27  1  0  0  0
 27 28  1  0  0  0
 27 29  2  0  0  0
 29 30  1  0  0  0
 29 35  1  0  0  0
 30 31  2  0  0  0
 30 32  1  0  0  0
 32 33  1  0  0  0
 32 34  1  0  0  0
 35 36  1  0  0  0
 35 37  2  0  0  0
 37 38  1  0  0  0
 39 40  1  0  0  0
 39 41  2  0  0  0
 41 42  1  0  0  0
M  END
> <s_m_source_file>
ligprep_cdk8.smi

> <i_m_source_file_index>
20

> <i_lp_mmshare_version>
53161

> <i_f3d_flags>
0

> <s_epik_input>
W0NIM11uMW5bY0hdYyhbY0hdMSktYzJbY0hdW2NIXWMoW2NIXVtjSF0yKVtDSDJdYyhuW25IXTMpYyhjMzQpW2NIXWMoQyg9TylbTkgyXSlbY0hdW2NIXTQ=

> <s_epik_cmdline>
J2VwaWtfcHl0aG9uJywgJy1waHQnLCAnMC4wJywgJy1waCcsICc3LjQnLCAnLXRuJywgJzgnLCAnLW1hJywgJzUwMCcsICctaW1hZScsICc8aW5maWxlLm1hZT4nLCAnLW9tYWUnLCAnPG91dGZpbGUubWFlPic=

> <r_lp_tautomer_probability>
1

> <r_epik_Ionization_Penalty>
  0.0001

> <r_epik_Ionization_Penalty_Charging>
  0.0000

> <r_epik_Ionization_Penalty_Neutral>
  0.0001

> <r_epik_State_Penalty>
 -0.0000

> <r_epik_Charging_Adjusted_Penalty>
0

> <i_epik_Tot_Q>
0

> <i_epik_Tot_abs_Q>
0

> <s_lp_Force_Field>
S-OPLS

> <r_lp_Energy>
28.1226

> <b_lp_Chiralities_Consistent>
1

> <s_lp_Variant>
lig_32-1

> <s_i_glide_gridfile>
glide-grid_CDK8-5HNB

> <i_i_glide_lignum>
20

> <i_i_glide_rotatable_bonds>
4

> <r_i_docking_score>
-9.70080749745213

> <r_i_glide_ligand_efficiency>
-0.388032299898085

> <r_i_glide_ligand_efficiency_sa>
-1.13461332668414

> <r_i_glide_ligand_efficiency_ln>
-2.29938208663802

> <r_i_glide_gscore>
-9.70080749745213

> <r_i_glide_lipo>
-3.8661254109446

> <r_i_glide_hbond>
-0.580434447570729

> <r_i_glide_metal>
-0

> <r_i_glide_rewards>
-2.73528737138846

> <r_i_glide_evdw>
-42.5434188842773

> <r_i_glide_ecoul>
-5.81131744384766

> <r_i_glide_erotb>
0.479908293242671

> <r_i_glide_esite>
0

> <r_i_glide_emodel>
-74.669270026922

> <r_i_glide_energy>
-48.354736328125

> <r_i_glide_einternal>
3.05357503890991

> <i_i_glide_confnum>
1

> <i_i_glide_posenum>
4

> <r_i_glide_eff_state_penalty>
-0

> <r_i_glide_rmsd>
0.089058914179832

> <s_glide_core_constrain_type>
snapped_core_restrain

$$$$
lig_26
                    3D
 Schrodinger Suite 2022-3.
 49 53  0  0  1  0            999 V2000
   -1.9752   14.3410   -7.9240 H   0  0  0  0  0  0
   -1.4986   13.5826   -7.3190 C   0  0  0  0  0  0
   -0.2912   13.8092   -6.8135 N   0  0  0  0  0  0
    0.0054   12.6964   -6.1006 N   0  0  0  0  0  0
    1.2516   12.6183   -5.3656 C   0  0  0  0  0  0
    1.3295   11.6560   -4.8508 H   0  0  0  0  0  0
    1.2909   13.4189   -4.6229 H   0  0  0  0  0  0
    2.0947   12.7187   -6.0451 H   0  0  0  0  0  0
   -0.9993   11.7566   -6.1693 C   0  0  0  0  0  0
   -0.9324   10.8162   -5.6512 H   0  0  0  0  0  0
   -1.9885   12.3036   -6.9314 C   0  0  0  0  0  0
   -3.2985   11.7096   -7.2414 C   0  0  0  0  0  0
   -4.4907   12.4042   -6.9377 C   0  0  0  0  0  0
   -4.4406   13.3911   -6.5034 H   0  0  0  0  0  0
   -5.7478   11.8087   -7.1565 C   0  0  0  0  0  0
   -6.6437   12.3482   -6.8945 H   0  0  0  0  0  0
   -5.8332   10.5143   -7.7102 C   0  0  0  0  0  0
   -7.1878    9.8553   -7.9317 C   0  0  0  0  0  0
   -7.1763    8.8900   -7.4249 H   0  0  0  0  0  0
   -7.9624   10.4403   -7.4332 H   0  0  0  0  0  0
   -7.5481    9.6706   -9.3812 C   0  0  0  0  0  0
   -8.2463    8.6360   -9.7813 N   0  0  0  0  0  0
   -8.4343    8.7875  -11.1184 N   0  0  0  0  0  0
   -8.9688    8.1041  -11.6442 H   0  0  0  0  0  0
   -7.8466    9.9247  -11.6283 C   0  0  0  0  0  0
   -7.2354   10.5195  -10.4951 C   0  0  0  0  0  0
   -6.5067   11.7073  -10.7019 C   0  0  0  0  0  0
   -6.0267   12.1744   -9.8564 H   0  0  0  0  0  0
   -6.3399   12.2613  -11.9918 C   0  0  0  0  0  0
   -5.5117   13.4077  -12.1812 N   0  0  0  0  0  0
   -4.3351   13.6439  -11.5698 C   0  0  0  0  0  0
   -3.7720   12.9145  -10.7555 O   0  0  0  0  0  0
   -3.7319   14.9657  -12.0057 C   0  0  0  0  0  0
   -3.6894   15.6470  -11.1557 H   0  0  0  0  0  0
   -2.7201   14.8284  -12.3892 H   0  0  0  0  0  0
   -4.6902   15.4673  -13.0833 C   0  0  0  0  0  0
   -5.0467   16.4672  -12.8456 H   0  0  0  0  0  0
   -4.1851   15.5201  -14.0456 H   0  0  0  0  0  0
   -5.8448   14.4556  -13.1352 C   0  0  0  0  0  0
   -5.9680   14.0631  -14.1460 H   0  0  0  0  0  0
   -6.7818   14.9125  -12.8193 H   0  0  0  0  0  0
   -7.0091   11.6681  -13.0892 C   0  0  0  0  0  0
   -6.9216   12.0760  -14.0859 H   0  0  0  0  0  0
   -7.7683   10.4960  -12.9073 C   0  0  0  0  0  0
   -8.2539   10.0259  -13.7509 H   0  0  0  0  0  0
   -4.6476    9.8273   -8.0451 C   0  0  0  0  0  0
   -4.6985    8.8372   -8.4759 H   0  0  0  0  0  0
   -3.3919   10.4166   -7.7982 C   0  0  0  0  0  0
   -2.4914    9.8663   -8.0330 H   0  0  0  0  0  0
  1  2  1  0  0  0
  2 11  1  0  0  0
  2  3  2  0  0  0
  3  4  1  0  0  0
  4  5  1  0  0  0
  4  9  1  0  0  0
  5  6  1  0  0  0
  5  7  1  0  0  0
  5  8  1  0  0  0
  9 10  1  0  0  0
  9 11  2  0  0  0
 11 12  1  0  0  0
 12 48  1  0  0  0
 12 13  2  0  0  0
 13 14  1  0  0  0
 13 15  1  0  0  0
 15 16  1  0  0  0
 15 17  2  0  0  0
 17 18  1  0  0  0
 17 46  1  0  0  0
 18 19  1  0  0  0
 18 20  1  0  0  0
 18 21  1  0  0  0
 21 26  1  0  0  0
 21 22  2  0  0  0
 22 23  1  0  0  0
 23 24  1  0  0  0
 23 25  1  0  0  0
 25 44  1  0  0  0
 25 26  2  0  0  0
 26 27  1  0  0  0
 27 28  1  0  0  0
 27 29  2  0  0  0
 29 30  1  0  0  0
 29 42  1  0  0  0
 30 39  1  0  0  0
 30 31  1  0  0  0
 31 32  2  0  0  0
 31 33  1  0  0  0
 33 34  1  0  0  0
 33 35  1  0  0  0
 33 36  1  0  0  0
 36 37  1  0  0  0
 36 38  1  0  0  0
 36 39  1  0  0  0
 39 40  1  0  0  0
 39 41  1  0  0  0
 42 43  1  0  0  0
 42 44  2  0  0  0
 44 45  1  0  0  0
 46 47  1  0  0  0
 46 48  2  0  0  0
 48 49  1  0  0  0
M  END
> <s_m_source_file>
ligprep_cdk8.smi

> <i_m_source_file_index>
14

> <i_lp_mmshare_version>
53161

> <i_f3d_flags>
0

> <s_epik_input>
W0NIM11uMW5bY0hdYyhbY0hdMSktYzJbY0hdW2NIXWMoW2NIXVtjSF0yKVtDSDJdYyhuW25IXTMpYyhjMzQpW2NIXWMoW2NIXVtjSF00KU41Qyg9TylbQ0gyXVtDSDJdW0NIMl01

> <s_epik_cmdline>
J2VwaWtfcHl0aG9uJywgJy1waHQnLCAnMC4wJywgJy1waCcsICc3LjQnLCAnLXRuJywgJzgnLCAnLW1hJywgJzUwMCcsICctaW1hZScsICc8aW5maWxlLm1hZT4nLCAnLW9tYWUnLCAnPG91dGZpbGUubWFlPic=

> <r_lp_tautomer_probability>
1

> <r_epik_Ionization_Penalty>
  0.0001

> <r_epik_Ionization_Penalty_Charging>
  0.0000

> <r_epik_Ionization_Penalty_Neutral>
  0.0001

> <r_epik_State_Penalty>
 -0.0000

> <r_epik_Charging_Adjusted_Penalty>
0

> <i_epik_Tot_Q>
0

> <i_epik_Tot_abs_Q>
0

> <s_lp_Force_Field>
S-OPLS

> <r_lp_Energy>
31.1939

> <b_lp_Chiralities_Consistent>
1

> <s_lp_Variant>
lig_26-1

> <s_i_glide_gridfile>
glide-grid_CDK8-5HNB

> <i_i_glide_lignum>
14

> <i_i_glide_rotatable_bonds>
4

> <r_i_docking_score>
-9.6956327469993

> <r_i_glide_ligand_efficiency>
-0.346272598107118

> <r_i_glide_ligand_efficiency_sa>
-1.05148755150688

> <r_i_glide_ligand_efficiency_ln>
-2.23803671415484

> <r_i_glide_gscore>
-9.6956327469993

> <r_i_glide_lipo>
-3.8960561472531

> <r_i_glide_hbond>
-0.594958323540837

> <r_i_glide_metal>
-0

> <r_i_glide_rewards>
-2.76154481655346

> <r_i_glide_evdw>
-47.8484344482422

> <r_i_glide_ecoul>
-2.94940733909607

> <r_i_glide_erotb>
0.391759363624624

> <r_i_glide_esite>
0

> <r_i_glide_emodel>
-78.1176417250785

> <r_i_glide_energy>
-50.7978417873383

> <r_i_glide_einternal>
3.72913599014282

> <i_i_glide_confnum>
4

> <i_i_glide_posenum>
11

> <r_i_glide_eff_state_penalty>
-0

> <r_i_glide_rmsd>
0.0821761132813458

> <s_glide_core_constrain_type>
snapped_core_restrain

$$$$
lig_20
                    3D
 Schrodinger Suite 2022-3.
 55 58  0  0  1  0            999 V2000
    2.0026   12.9582   -3.2127 H   0  0  0  0  0  0
    1.4131   13.6365   -3.5104 O   0  0  0  0  0  0
    1.6638   13.9026   -4.8756 C   0  0  0  0  0  0
    0.9245   15.2234   -5.1679 C   0  0  0  0  0  0
    1.0884   15.5503   -6.1936 H   0  0  0  0  0  0
    1.2638   16.0252   -4.5097 H   0  0  0  0  0  0
   -0.1522   15.1312   -5.0181 H   0  0  0  0  0  0
    3.1761   14.1257   -5.0420 C   0  0  0  0  0  0
    3.4127   14.4298   -6.0645 H   0  0  0  0  0  0
    3.5466   14.9084   -4.3768 H   0  0  0  0  0  0
    3.7443   13.2163   -4.8451 H   0  0  0  0  0  0
    1.2131   12.6377   -5.6710 C   0  0  0  0  0  0
    1.9366   12.4094   -6.4455 H   0  0  0  0  0  0
    1.2238   11.7546   -5.0283 H   0  0  0  0  0  0
   -0.0851   12.6991   -6.3232 N   0  0  0  0  0  0
   -0.3211   13.6050   -7.3051 N   0  0  0  0  0  0
   -1.5489   13.3535   -7.7272 C   0  0  0  0  0  0
   -1.9845   13.9409   -8.5181 H   0  0  0  0  0  0
   -2.1049   12.2551   -7.0288 C   0  0  0  0  0  0
   -3.4196   11.6690   -7.2497 C   0  0  0  0  0  0
   -3.5291   10.3812   -7.8028 C   0  0  0  0  0  0
   -2.6337    9.8277   -8.0437 H   0  0  0  0  0  0
   -4.7897    9.8093   -8.0455 C   0  0  0  0  0  0
   -4.8571    8.8197   -8.4722 H   0  0  0  0  0  0
   -5.9569   10.5221   -7.7105 C   0  0  0  0  0  0
   -7.3147    9.9024   -7.9765 C   0  0  0  0  0  0
   -7.3480    8.9417   -7.4576 H   0  0  0  0  0  0
   -8.0915   10.5186   -7.5216 H   0  0  0  0  0  0
   -7.5932    9.7142   -9.4423 C   0  0  0  0  0  0
   -8.2463    8.6593   -9.8620 N   0  0  0  0  0  0
   -8.3871    8.7866  -11.2028 N   0  0  0  0  0  0
   -8.8805    8.0710  -11.7301 H   0  0  0  0  0  0
   -7.8103    9.9348  -11.6986 C   0  0  0  0  0  0
   -7.2405   10.5564  -10.5532 C   0  0  0  0  0  0
   -6.5244   11.7568  -10.7586 C   0  0  0  0  0  0
   -6.0890   12.2552   -9.9082 H   0  0  0  0  0  0
   -6.3694   12.3048  -12.0496 C   0  0  0  0  0  0
   -5.5976   13.5765  -12.2304 C   0  0  0  0  0  0
   -5.9838   14.4412  -13.0100 O   0  0  0  0  0  0
   -4.4693   13.6705  -11.5121 N   0  0  0  0  0  0
   -4.2269   12.8948  -10.9129 H   0  0  0  0  0  0
   -3.5833   14.8297  -11.5121 C   0  0  0  0  0  0
   -2.6866   14.6224  -10.9201 H   0  0  0  0  0  0
   -3.2731   15.0914  -12.5267 H   0  0  0  0  0  0
   -4.0921   15.6929  -11.0804 H   0  0  0  0  0  0
   -6.9956   11.6868  -13.1537 C   0  0  0  0  0  0
   -6.8907   12.1226  -14.1385 H   0  0  0  0  0  0
   -7.7235   10.4956  -12.9791 C   0  0  0  0  0  0
   -8.1931   10.0164  -13.8214 H   0  0  0  0  0  0
   -5.8510   11.8100   -7.1441 C   0  0  0  0  0  0
   -6.7424   12.3723   -6.9023 H   0  0  0  0  0  0
   -4.5888   12.3841   -6.9280 C   0  0  0  0  0  0
   -4.5292   13.3780   -6.5128 H   0  0  0  0  0  0
   -1.1436   11.8314   -6.1633 C   0  0  0  0  0  0
   -1.1187   10.9972   -5.4787 H   0  0  0  0  0  0
  1  2  1  0  0  0
  2  3  1  0  0  0
  3  4  1  0  0  0
  3  8  1  0  0  0
  3 12  1  0  0  0
  4  5  1  0  0  0
  4  6  1  0  0  0
  4  7  1  0  0  0
  8  9  1  0  0  0
  8 10  1  0  0  0
  8 11  1  0  0  0
 12 13  1  0  0  0
 12 14  1  0  0  0
 12 15  1  0  0  0
 15 54  1  0  0  0
 15 16  1  0  0  0
 16 17  2  0  0  0
 17 18  1  0  0  0
 17 19  1  0  0  0
 19 20  1  0  0  0
 19 54  2  0  0  0
 20 52  1  0  0  0
 20 21  2  0  0  0
 21 22  1  0  0  0
 21 23  1  0  0  0
 23 24  1  0  0  0
 23 25  2  0  0  0
 25 26  1  0  0  0
 25 50  1  0  0  0
 26 27  1  0  0  0
 26 28  1  0  0  0
 26 29  1  0  0  0
 29 34  1  0  0  0
 29 30  2  0  0  0
 30 31  1  0  0  0
 31 32  1  0  0  0
 31 33  1  0  0  0
 33 48  1  0  0  0
 33 34  2  0  0  0
 34 35  1  0  0  0
 35 36  1  0  0  0
 35 37  2  0  0  0
 37 38  1  0  0  0
 37 46  1  0  0  0
 38 39  2  0  0  0
 38 40  1  0  0  0
 40 41  1  0  0  0
 40 42  1  0  0  0
 42 43  1  0  0  0
 42 44  1  0  0  0
 42 45  1  0  0  0
 46 47  1  0  0  0
 46 48  2  0  0  0
 48 49  1  0  0  0
 50 51  1  0  0  0
 50 52  2  0  0  0
 52 53  1  0  0  0
 54 55  1  0  0  0
M  END
> <s_m_source_file>
ligprep_cdk8.smi

> <i_m_source_file_index>
8

> <i_lp_mmshare_version>
53161

> <i_f3d_flags>
0

> <s_epik_input>
W09IXUMoW0NIM10pKFtDSDNdKVtDSDJdbjFuW2NIXWMoW2NIXTEpLWMyW2NIXVtjSF1jKFtjSF1bY0hdMilbQ0gyXWMobltuSF0zKWMoYzM0KVtjSF1jKFtjSF1bY0hdNClDKD1PKVtOSF1bQ0gzXQ==

> <s_epik_cmdline>
J2VwaWtfcHl0aG9uJywgJy1waHQnLCAnMC4wJywgJy1waCcsICc3LjQnLCAnLXRuJywgJzgnLCAnLW1hJywgJzUwMCcsICctaW1hZScsICc8aW5maWxlLm1hZT4nLCAnLW9tYWUnLCAnPG91dGZpbGUubWFlPic=

> <r_lp_tautomer_probability>
1

> <r_epik_Ionization_Penalty>
  0.0020

> <r_epik_Ionization_Penalty_Charging>
  0.0000

> <r_epik_Ionization_Penalty_Neutral>
  0.0020

> <r_epik_State_Penalty>
 -0.0000

> <r_epik_Charging_Adjusted_Penalty>
0

> <i_epik_Tot_Q>
0

> <i_epik_Tot_abs_Q>
0

> <s_lp_Force_Field>
S-OPLS

> <r_lp_Energy>
25.7016

> <b_lp_Chiralities_Consistent>
1

> <s_lp_Variant>
lig_20-1

> <s_i_glide_gridfile>
glide-grid_CDK8-5HNB

> <i_i_glide_lignum>
8

> <i_i_glide_rotatable_bonds>
8

> <r_i_docking_score>
-9.69229302270171

> <r_i_glide_ligand_efficiency>
-0.323076434090057

> <r_i_glide_ligand_efficiency_sa>
-1.00387359677416

> <r_i_glide_ligand_efficiency_ln>
-2.20219458074869

> <r_i_glide_gscore>
-9.69229302270171

> <r_i_glide_lipo>
-4.26132828446158

> <r_i_glide_hbond>
-0.583200244408347

> <r_i_glide_metal>
-0

> <r_i_glide_rewards>
-2.20152623830756

> <r_i_glide_evdw>
-47.1017951965332

> <r_i_glide_ecoul>
-5.88077640533447

> <r_i_glide_erotb>
0.590967965102611

> <r_i_glide_esite>
0

> <r_i_glide_emodel>
-81.3849027752811

> <r_i_glide_energy>
-52.9825716018677

> <r_i_glide_einternal>
7.25391006469727

> <i_i_glide_confnum>
69

> <i_i_glide_posenum>
83

> <r_i_glide_eff_state_penalty>
-0

> <r_i_glide_rmsd>
0.100858787343386

> <s_glide_core_constrain_type>
snapped_core_restrain

$$$$
lig_28
                    3D
 Schrodinger Suite 2022-3.
 51 55  0  0  1  0            999 V2000
   -2.5117   14.6231   -6.7905 H   0  0  0  0  0  0
   -1.8398   13.7861   -6.6650 C   0  0  0  0  0  0
   -0.6067   14.0127   -6.2345 N   0  0  0  0  0  0
   -0.0375   12.7863   -6.1585 N   0  0  0  0  0  0
    1.3169   12.6513   -5.6629 C   0  0  0  0  0  0
    1.7591   11.7310   -6.0454 H   0  0  0  0  0  0
    1.3064   12.6112   -4.5733 H   0  0  0  0  0  0
    1.9220   13.5002   -5.9852 H   0  0  0  0  0  0
   -0.8994   11.7913   -6.5645 C   0  0  0  0  0  0
   -0.6044   10.7582   -6.5618 H   0  0  0  0  0  0
   -2.0844   12.3966   -6.8618 C   0  0  0  0  0  0
   -3.3631   11.7544   -7.2238 C   0  0  0  0  0  0
   -3.4244   10.4527   -7.7820 C   0  0  0  0  0  0
   -2.5143    9.9101   -7.9962 H   0  0  0  0  0  0
   -4.6706    9.8438   -8.0458 C   0  0  0  0  0  0
   -4.6997    8.8465   -8.4614 H   0  0  0  0  0  0
   -5.8742   10.5129   -7.7345 C   0  0  0  0  0  0
   -7.2231    9.8434   -7.9571 C   0  0  0  0  0  0
   -7.2105    8.8892   -7.4287 H   0  0  0  0  0  0
   -8.0041   10.4330   -7.4748 H   0  0  0  0  0  0
   -7.5772    9.6307   -9.4079 C   0  0  0  0  0  0
   -8.2462    8.5745   -9.8039 N   0  0  0  0  0  0
   -8.4221    8.7046  -11.1454 N   0  0  0  0  0  0
   -8.9340    7.9960  -11.6634 H   0  0  0  0  0  0
   -7.8593    9.8520  -11.6670 C   0  0  0  0  0  0
   -7.2800   10.4701  -10.5296 C   0  0  0  0  0  0
   -6.5751   11.6650  -10.7400 C   0  0  0  0  0  0
   -6.1084   12.1483   -9.8967 H   0  0  0  0  0  0
   -6.3755   12.1865  -12.0331 C   0  0  0  0  0  0
   -5.4720   13.2607  -12.1288 N   0  0  0  0  0  0
   -5.6046   14.3127  -13.1118 C   0  0  0  0  0  0
   -5.0586   14.0390  -14.0161 H   0  0  0  0  0  0
   -6.6531   14.4164  -13.3654 H   0  0  0  0  0  0
   -5.0606   15.6292  -12.5124 C   0  0  0  0  0  0
   -5.6761   15.9688  -11.6741 H   0  0  0  0  0  0
   -5.0462   16.4159  -13.2649 H   0  0  0  0  0  0
   -3.7286   15.4611  -12.0497 O   0  0  0  0  0  0
   -3.6375   14.4686  -11.0310 C   0  0  0  0  0  0
   -4.2299   14.7712  -10.1648 H   0  0  0  0  0  0
   -2.6013   14.3890  -10.7011 H   0  0  0  0  0  0
   -4.1253   13.1146  -11.5787 C   0  0  0  0  0  0
   -4.0770   12.3576  -10.7951 H   0  0  0  0  0  0
   -3.4588   12.7767  -12.3747 H   0  0  0  0  0  0
   -7.0195   11.5960  -13.1420 C   0  0  0  0  0  0
   -6.8978   12.0035  -14.1345 H   0  0  0  0  0  0
   -7.7783   10.4224  -12.9526 C   0  0  0  0  0  0
   -8.2610    9.9521  -13.7946 H   0  0  0  0  0  0
   -5.8174   11.8123   -7.1953 C   0  0  0  0  0  0
   -6.7262   12.3425   -6.9538 H   0  0  0  0  0  0
   -4.5754   12.4278   -6.9558 C   0  0  0  0  0  0
   -4.5648   13.4160   -6.5205 H   0  0  0  0  0  0
  1  2  1  0  0  0
  2 11  1  0  0  0
  2  3  2  0  0  0
  3  4  1  0  0  0
  4  5  1  0  0  0
  4  9  1  0  0  0
  5  6  1  0  0  0
  5  7  1  0  0  0
  5  8  1  0  0  0
  9 10  1  0  0  0
  9 11  2  0  0  0
 11 12  1  0  0  0
 12 50  1  0  0  0
 12 13  2  0  0  0
 13 14  1  0  0  0
 13 15  1  0  0  0
 15 16  1  0  0  0
 15 17  2  0  0  0
 17 18  1  0  0  0
 17 48  1  0  0  0
 18 19  1  0  0  0
 18 20  1  0  0  0
 18 21  1  0  0  0
 21 26  1  0  0  0
 21 22  2  0  0  0
 22 23  1  0  0  0
 23 24  1  0  0  0
 23 25  1  0  0  0
 25 46  1  0  0  0
 25 26  2  0  0  0
 26 27  1  0  0  0
 27 28  1  0  0  0
 27 29  2  0  0  0
 29 30  1  0  0  0
 29 44  1  0  0  0
 30 41  1  0  0  0
 30 31  1  0  0  0
 31 32  1  0  0  0
 31 33  1  0  0  0
 31 34  1  0  0  0
 34 35  1  0  0  0
 34 36  1  0  0  0
 34 37  1  0  0  0
 37 38  1  0  0  0
 38 39  1  0  0  0
 38 40  1  0  0  0
 38 41  1  0  0  0
 41 42  1  0  0  0
 41 43  1  0  0  0
 44 45  1  0  0  0
 44 46  2  0  0  0
 46 47  1  0  0  0
 48 49  1  0  0  0
 48 50  2  0  0  0
 50 51  1  0  0  0
M  END
> <s_m_source_file>
ligprep_cdk8.smi

> <i_m_source_file_index>
16

> <i_lp_mmshare_version>
53161

> <i_f3d_flags>
0

> <s_epik_input>
W0NIM11uMW5bY0hdYyhbY0hdMSktYzJbY0hdW2NIXWMoW2NIXVtjSF0yKVtDSDJdYyhuW25IXTMpYyhjMzQpW2NIXWMoW2NIXVtjSF00KU41W0NIMl1bQ0gyXU9bQ0gyXVtDSDJdNQ==

> <s_epik_cmdline>
J2VwaWtfcHl0aG9uJywgJy1waHQnLCAnMC4wJywgJy1waCcsICc3LjQnLCAnLXRuJywgJzgnLCAnLW1hJywgJzUwMCcsICctaW1hZScsICc8aW5maWxlLm1hZT4nLCAnLW9tYWUnLCAnPG91dGZpbGUubWFlPic=

> <r_lp_tautomer_probability>
1

> <r_epik_Ionization_Penalty>
  0.0001

> <r_epik_Ionization_Penalty_Charging>
  0.0000

> <r_epik_Ionization_Penalty_Neutral>
  0.0001

> <r_epik_State_Penalty>
 -0.0000

> <r_epik_Charging_Adjusted_Penalty>
0

> <i_epik_Tot_Q>
0

> <i_epik_Tot_abs_Q>
0

> <s_lp_Force_Field>
S-OPLS

> <r_lp_Energy>
39.1489

> <b_lp_Chiralities_Consistent>
1

> <s_lp_Variant>
lig_28-1

> <s_i_glide_gridfile>
glide-grid_CDK8-5HNB

> <i_i_glide_lignum>
16

> <i_i_glide_rotatable_bonds>
4

> <r_i_docking_score>
-9.66520292271193

> <r_i_glide_ligand_efficiency>
-0.345185818668283

> <r_i_glide_ligand_efficiency_sa>
-1.04818744905172

> <r_i_glide_ligand_efficiency_ln>
-2.23101261725085

> <r_i_glide_gscore>
-9.66520292271193

> <r_i_glide_lipo>
-4.45856614499403

> <r_i_glide_hbond>
-0.608

> <r_i_glide_metal>
-0

> <r_i_glide_rewards>
-2.22719128684189

> <r_i_glide_evdw>
-45.4574432373047

> <r_i_glide_ecoul>
-3.24372625350952

> <r_i_glide_erotb>
0.38798560901565

> <r_i_glide_esite>
0

> <r_i_glide_emodel>
-99.425207408263

> <r_i_glide_energy>
-48.7011694908142

> <r_i_glide_einternal>
4.72506904602051

> <i_i_glide_confnum>
18

> <i_i_glide_posenum>
28

> <r_i_glide_eff_state_penalty>
-0

> <r_i_glide_rmsd>
0.106425680725873

> <s_glide_core_constrain_type>
snapped_core_restrain

$$$$
lig_35
                    3D
 Schrodinger Suite 2022-3.
 50 54  0  0  1  0            999 V2000
   -0.5930   13.7039  -10.8155 H   0  0  0  0  0  0
   -1.4434   13.9578  -10.4828 O   0  0  0  0  0  0
   -2.3676   13.7643  -11.5315 C   0  0  0  0  0  0
   -1.7965   13.6133  -12.4458 H   0  0  0  0  0  0
   -3.4384   12.6738  -11.3770 C   0  0  0  0  0  0
   -3.4293   11.9410  -12.1880 H   0  0  0  0  0  0
   -3.4770   12.2118  -10.3876 H   0  0  0  0  0  0
   -4.4183   13.7387  -11.5459 N   0  0  0  0  0  0
   -5.6094   13.5884  -12.2649 C   0  0  0  0  0  0
   -6.0266   14.4485  -13.0363 O   0  0  0  0  0  0
   -6.3726   12.3115  -12.0845 C   0  0  0  0  0  0
   -6.5030   11.7625  -10.7914 C   0  0  0  0  0  0
   -6.0356   12.2584   -9.9550 H   0  0  0  0  0  0
   -7.2172   10.5661  -10.5637 C   0  0  0  0  0  0
   -7.8238    9.9463  -11.6898 C   0  0  0  0  0  0
   -7.7500   10.5010  -12.9806 C   0  0  0  0  0  0
   -8.2462   10.0192  -13.8114 H   0  0  0  0  0  0
   -7.0202   11.6908  -13.1792 C   0  0  0  0  0  0
   -6.9550   12.1219  -14.1685 H   0  0  0  0  0  0
   -8.4097    8.8145  -11.1604 N   0  0  0  0  0  0
   -8.9480    8.1209  -11.6699 H   0  0  0  0  0  0
   -8.2450    8.6967   -9.8195 N   0  0  0  0  0  0
   -7.5350    9.7314   -9.4367 C   0  0  0  0  0  0
   -7.1854    9.9231   -7.9855 C   0  0  0  0  0  0
   -7.9613   10.5177   -7.5005 H   0  0  0  0  0  0
   -7.1801    8.9636   -7.4686 H   0  0  0  0  0  0
   -5.8304   10.5734   -7.7516 C   0  0  0  0  0  0
   -4.6421    9.8738   -8.0470 C   0  0  0  0  0  0
   -4.6871    8.8755   -8.4540 H   0  0  0  0  0  0
   -3.3879   10.4694   -7.8085 C   0  0  0  0  0  0
   -2.4841    9.9184   -8.0327 H   0  0  0  0  0  0
   -3.2997   11.7702   -7.2619 C   0  0  0  0  0  0
   -2.0014   12.3851   -6.9440 C   0  0  0  0  0  0
   -0.9529   11.8037   -6.2966 C   0  0  0  0  0  0
   -0.8210   10.8153   -5.8955 H   0  0  0  0  0  0
    0.0091   12.7796   -6.1517 N   0  0  0  0  0  0
    1.2855   12.6754   -5.4749 C   0  0  0  0  0  0
    1.1433   12.2379   -4.4845 H   0  0  0  0  0  0
    1.9546   12.0310   -6.0463 H   0  0  0  0  0  0
    1.7401   13.6628   -5.3568 H   0  0  0  0  0  0
   -0.3695   13.9538   -6.7155 N   0  0  0  0  0  0
   -1.5860   13.7228   -7.1963 C   0  0  0  0  0  0
   -2.1200   14.5194   -7.6954 H   0  0  0  0  0  0
   -4.4939   12.4698   -6.9854 C   0  0  0  0  0  0
   -4.4466   13.4635   -6.5637 H   0  0  0  0  0  0
   -5.7482   11.8757   -7.2183 C   0  0  0  0  0  0
   -6.6470   12.4254   -6.9836 H   0  0  0  0  0  0
   -3.4597   14.8149  -11.7608 C   0  0  0  0  0  0
   -3.5049   15.5876  -10.9948 H   0  0  0  0  0  0
   -3.4541   15.2290  -12.7705 H   0  0  0  0  0  0
  1  2  1  0  0  0
  2  3  1  0  0  0
  3 48  1  0  0  0
  3  4  1  0  0  0
  3  5  1  0  0  0
  5  6  1  0  0  0
  5  7  1  0  0  0
  5  8  1  0  0  0
  8  9  1  0  0  0
  8 48  1  0  0  0
  9 10  2  0  0  0
  9 11  1  0  0  0
 11 18  1  0  0  0
 11 12  2  0  0  0
 12 13  1  0  0  0
 12 14  1  0  0  0
 14 23  1  0  0  0
 14 15  2  0  0  0
 15 16  1  0  0  0
 15 20  1  0  0  0
 16 17  1  0  0  0
 16 18  2  0  0  0
 18 19  1  0  0  0
 20 21  1  0  0  0
 20 22  1  0  0  0
 22 23  2  0  0  0
 23 24  1  0  0  0
 24 25  1  0  0  0
 24 26  1  0  0  0
 24 27  1  0  0  0
 27 46  1  0  0  0
 27 28  2  0  0  0
 28 29  1  0  0  0
 28 30  1  0  0  0
 30 31  1  0  0  0
 30 32  2  0  0  0
 32 33  1  0  0  0
 32 44  1  0  0  0
 33 42  1  0  0  0
 33 34  2  0  0  0
 34 35  1  0  0  0
 34 36  1  0  0  0
 36 37  1  0  0  0
 36 41  1  0  0  0
 37 38  1  0  0  0
 37 39  1  0  0  0
 37 40  1  0  0  0
 41 42  2  0  0  0
 42 43  1  0  0  0
 44 45  1  0  0  0
 44 46  2  0  0  0
 46 47  1  0  0  0
 48 49  1  0  0  0
 48 50  1  0  0  0
M  END
> <s_m_source_file>
ligprep_cdk8.smi

> <i_m_source_file_index>
23

> <i_lp_mmshare_version>
53161

> <i_f3d_flags>
0

> <s_epik_input>
W09IXVtDSF0xW0NIMl1OKFtDSDJdMSlDKD1PKWMoW2NIXTIpW2NIXVtjSF1jKGMyMylbbkhdbmMzW0NIMl1jNFtjSF1bY0hdYyhbY0hdW2NIXTQpLWM1W2NIXW4oW0NIM10pbltjSF01

> <s_epik_cmdline>
J2VwaWtfcHl0aG9uJywgJy1waHQnLCAnMC4wJywgJy1waCcsICc3LjQnLCAnLXRuJywgJzgnLCAnLW1hJywgJzUwMCcsICctaW1hZScsICc8aW5maWxlLm1hZT4nLCAnLW9tYWUnLCAnPG91dGZpbGUubWFlPic=

> <r_lp_tautomer_probability>
1

> <r_epik_Ionization_Penalty>
  0.0001

> <r_epik_Ionization_Penalty_Charging>
  0.0000

> <r_epik_Ionization_Penalty_Neutral>
  0.0001

> <r_epik_State_Penalty>
 -0.0000

> <r_epik_Charging_Adjusted_Penalty>
0

> <i_epik_Tot_Q>
0

> <i_epik_Tot_abs_Q>
0

> <s_lp_Force_Field>
S-OPLS

> <r_lp_Energy>
29.681

> <b_lp_Chiralities_Consistent>
1

> <s_lp_Variant>
lig_35-1

> <s_i_glide_gridfile>
glide-grid_CDK8-5HNB

> <i_i_glide_lignum>
23

> <i_i_glide_rotatable_bonds>
6

> <r_i_docking_score>
-9.51558593959185

> <r_i_glide_ligand_efficiency>
-0.328123653089374

> <r_i_glide_ligand_efficiency_sa>
-1.00809981916047

> <r_i_glide_ligand_efficiency_ln>
-2.17882788572656

> <r_i_glide_gscore>
-9.51558593959185

> <r_i_glide_lipo>
-4.02545286824884

> <r_i_glide_hbond>
-0.594519580641774

> <r_i_glide_metal>
-0

> <r_i_glide_rewards>
-1.84223189380072

> <r_i_glide_evdw>
-49.2117805480957

> <r_i_glide_ecoul>
-6.9790620803833

> <r_i_glide_erotb>
0.454066742561755

> <r_i_glide_esite>
0

> <r_i_glide_emodel>
-84.1870417177593

> <r_i_glide_energy>
-56.190842628479

> <r_i_glide_einternal>
4.62746238708496

> <i_i_glide_confnum>
7

> <i_i_glide_posenum>
20

> <r_i_glide_eff_state_penalty>
-0

> <r_i_glide_rmsd>
0.100129304381052

> <s_glide_core_constrain_type>
snapped_core_restrain

$$$$
lig_18
                    3D
 Schrodinger Suite 2022-3.
 41 44  0  0  1  0            999 V2000
   -4.4953   14.4318   -5.8821 H   0  0  0  0  0  0
   -3.9569   13.6091   -6.3245 C   0  0  0  0  0  0
   -2.6479   13.6479   -6.3759 N   0  0  0  0  0  0
   -2.2655   12.4793   -6.9548 N   0  0  0  0  0  0
   -0.8509   12.2281   -7.1283 C   0  0  0  0  0  0
   -0.6913   11.5720   -7.9804 H   0  0  0  0  0  0
   -0.3195   13.1642   -7.3036 H   0  0  0  0  0  0
   -0.4544   11.7542   -6.2313 H   0  0  0  0  0  0
   -3.3344   11.6624   -7.2918 C   0  0  0  0  0  0
   -4.4766   12.3990   -6.8820 C   0  0  0  0  0  0
   -5.7478   11.8199   -7.0964 C   0  0  0  0  0  0
   -6.6342   12.3665   -6.8106 H   0  0  0  0  0  0
   -5.8731   10.5448   -7.6910 C   0  0  0  0  0  0
   -7.2474    9.9428   -7.9209 C   0  0  0  0  0  0
   -8.0074   10.5833   -7.4723 H   0  0  0  0  0  0
   -7.3024    9.0076   -7.3616 H   0  0  0  0  0  0
   -7.5651    9.7351   -9.3762 C   0  0  0  0  0  0
   -8.2452    8.6849   -9.7663 N   0  0  0  0  0  0
   -8.4019    8.8021  -11.1079 N   0  0  0  0  0  0
   -8.9138    8.0967  -11.6273 H   0  0  0  0  0  0
   -7.8370    9.9467  -11.6317 C   0  0  0  0  0  0
   -7.2399   10.5702  -10.5015 C   0  0  0  0  0  0
   -6.5244   11.7708  -10.7268 C   0  0  0  0  0  0
   -6.0575   12.2666   -9.8865 H   0  0  0  0  0  0
   -6.4074   12.3214  -12.0252 C   0  0  0  0  0  0
   -5.6180   13.5735  -12.2522 C   0  0  0  0  0  0
   -6.0112   14.4446  -13.0233 O   0  0  0  0  0  0
   -4.4533   13.6339  -11.5996 N   0  0  0  0  0  0
   -4.1717   12.8294  -11.0582 H   0  0  0  0  0  0
   -3.5710   14.7875  -11.6383 C   0  0  0  0  0  0
   -2.6446   14.5760  -11.1085 H   0  0  0  0  0  0
   -4.0542   15.6420  -11.1659 H   0  0  0  0  0  0
   -3.3283   15.0632  -12.6643 H   0  0  0  0  0  0
   -7.0553   11.6978  -13.1131 C   0  0  0  0  0  0
   -6.9851   12.1279  -14.1018 H   0  0  0  0  0  0
   -7.7687   10.4994  -12.9208 C   0  0  0  0  0  0
   -8.2469   10.0163  -13.7604 H   0  0  0  0  0  0
   -4.7186    9.8344   -8.0851 C   0  0  0  0  0  0
   -4.8113    8.8620   -8.5502 H   0  0  0  0  0  0
   -3.4442   10.3960   -7.8881 C   0  0  0  0  0  0
   -2.5553    9.8587   -8.1855 H   0  0  0  0  0  0
  1  2  1  0  0  0
  2 10  1  0  0  0
  2  3  2  0  0  0
  3  4  1  0  0  0
  4  5  1  0  0  0
  4  9  1  0  0  0
  5  6  1  0  0  0
  5  7  1  0  0  0
  5  8  1  0  0  0
  9 40  1  0  0  0
  9 10  2  0  0  0
 10 11  1  0  0  0
 11 12  1  0  0  0
 11 13  2  0  0  0
 13 14  1  0  0  0
 13 38  1  0  0  0
 14 15  1  0  0  0
 14 16  1  0  0  0
 14 17  1  0  0  0
 17 22  1  0  0  0
 17 18  2  0  0  0
 18 19  1  0  0  0
 19 20  1  0  0  0
 19 21  1  0  0  0
 21 36  1  0  0  0
 21 22  2  0  0  0
 22 23  1  0  0  0
 23 24  1  0  0  0
 23 25  2  0  0  0
 25 26  1  0  0  0
 25 34  1  0  0  0
 26 27  2  0  0  0
 26 28  1  0  0  0
 28 29  1  0  0  0
 28 30  1  0  0  0
 30 31  1  0  0  0
 30 32  1  0  0  0
 30 33  1  0  0  0
 34 35  1  0  0  0
 34 36  2  0  0  0
 36 37  1  0  0  0
 38 39  1  0  0  0
 38 40  2  0  0  0
 40 41  1  0  0  0
M  END
> <s_m_source_file>
ligprep_cdk8.smi

> <i_m_source_file_index>
6

> <i_lp_mmshare_version>
53161

> <i_f3d_flags>
0

> <s_epik_input>
W0NIM11uMW5bY0hdYyhjMTIpW2NIXWMoW2NIXVtjSF0yKVtDSDJdYyhuW25IXTMpYyhjMzQpW2NIXWMoW2NIXVtjSF00KUMoPU8pW05IXVtDSDNd

> <s_epik_cmdline>
J2VwaWtfcHl0aG9uJywgJy1waHQnLCAnMC4wJywgJy1waCcsICc3LjQnLCAnLXRuJywgJzgnLCAnLW1hJywgJzUwMCcsICctaW1hZScsICc8aW5maWxlLm1hZT4nLCAnLW9tYWUnLCAnPG91dGZpbGUubWFlPic=

> <r_lp_tautomer_probability>
1

> <r_epik_Ionization_Penalty>
  0.0000

> <r_epik_Ionization_Penalty_Charging>
  0.0000

> <r_epik_Ionization_Penalty_Neutral>
  0.0000

> <r_epik_State_Penalty>
 -0.0000

> <r_epik_Charging_Adjusted_Penalty>
0

> <i_epik_Tot_Q>
0

> <i_epik_Tot_abs_Q>
0

> <s_lp_Force_Field>
S-OPLS

> <r_lp_Energy>
29.945

> <b_lp_Chiralities_Consistent>
1

> <s_lp_Variant>
lig_18-1

> <s_i_glide_gridfile>
glide-grid_CDK8-5HNB

> <i_i_glide_lignum>
6

> <i_i_glide_rotatable_bonds>
4

> <r_i_docking_score>
-9.43406511688401

> <r_i_glide_ligand_efficiency>
-0.393086046536834

> <r_i_glide_ligand_efficiency_sa>
-1.13385636222202

> <r_i_glide_ligand_efficiency_ln>
-2.25800468351035

> <r_i_glide_gscore>
-9.43406511688401

> <r_i_glide_lipo>
-3.71691181330167

> <r_i_glide_hbond>
-0.569496803099352

> <r_i_glide_metal>
-0

> <r_i_glide_rewards>
-2.7229563611962

> <r_i_glide_evdw>
-41.5086631774902

> <r_i_glide_ecoul>
-5.74323797225952

> <r_i_glide_erotb>
0.512218715426649

> <r_i_glide_esite>
0

> <r_i_glide_emodel>
-75.0028481504192

> <r_i_glide_energy>
-47.2519011497498

> <r_i_glide_einternal>
0.0682514011859894

> <i_i_glide_confnum>
1

> <i_i_glide_posenum>
1

> <r_i_glide_eff_state_penalty>
-0

> <r_i_glide_rmsd>
0.050083519186294

> <s_glide_core_constrain_type>
snapped_core_restrain

$$$$
lig_19
                    3D
 Schrodinger Suite 2022-3.
 45 48  0  0  1  0            999 V2000
   -0.6591   10.8170   -6.2682 H   0  0  0  0  0  0
   -0.8383   11.8328   -6.5707 C   0  0  0  0  0  0
    0.1369   12.7173   -6.4453 N   0  0  0  0  0  0
   -0.3782   13.8686   -6.9371 N   0  0  0  0  0  0
    0.4611   15.0412   -7.0278 C   0  0  0  0  0  0
   -0.1377   15.9036   -7.3257 H   0  0  0  0  0  0
    0.9339   15.2372   -6.0647 H   0  0  0  0  0  0
    1.2304   14.8795   -7.7810 H   0  0  0  0  0  0
   -1.6967   13.7306   -7.3167 C   0  0  0  0  0  0
   -2.2738   14.5448   -7.7284 H   0  0  0  0  0  0
   -2.0254   12.4298   -7.0758 C   0  0  0  0  0  0
   -3.3289   11.7913   -7.2988 C   0  0  0  0  0  0
   -4.5163   12.4760   -6.9714 C   0  0  0  0  0  0
   -4.4670   13.4662   -6.5435 H   0  0  0  0  0  0
   -5.7740   11.8799   -7.1708 C   0  0  0  0  0  0
   -6.6655   12.4269   -6.9072 H   0  0  0  0  0  0
   -5.8603   10.5839   -7.7175 C   0  0  0  0  0  0
   -7.2145    9.9410   -7.9431 C   0  0  0  0  0  0
   -7.9890   10.5478   -7.4749 H   0  0  0  0  0  0
   -7.2231    8.9899   -7.4075 H   0  0  0  0  0  0
   -7.5432    9.7455   -9.3969 C   0  0  0  0  0  0
   -8.2450    8.7075   -9.7834 N   0  0  0  0  0  0
   -8.4005    8.8243  -11.1267 N   0  0  0  0  0  0
   -8.9332    8.1334  -11.6454 H   0  0  0  0  0  0
   -7.8156    9.9573  -11.6527 C   0  0  0  0  0  0
   -7.2107   10.5762  -10.5264 C   0  0  0  0  0  0
   -6.4858   11.7655  -10.7580 C   0  0  0  0  0  0
   -6.0193   12.2608   -9.9197 H   0  0  0  0  0  0
   -6.3486   12.3076  -12.0556 C   0  0  0  0  0  0
   -5.5764   13.5728  -12.2601 C   0  0  0  0  0  0
   -5.9904   14.4471  -13.0166 O   0  0  0  0  0  0
   -4.4311   13.6587  -11.5681 N   0  0  0  0  0  0
   -4.1881   12.8843  -10.9662 H   0  0  0  0  0  0
   -3.5504   14.8154  -11.5832 C   0  0  0  0  0  0
   -2.6232   14.5865  -11.0611 H   0  0  0  0  0  0
   -4.0210   15.6636  -11.0903 H   0  0  0  0  0  0
   -3.2998   15.1120  -12.6000 H   0  0  0  0  0  0
   -6.9974   11.6885  -13.1460 C   0  0  0  0  0  0
   -6.9206   12.1175  -14.1372 H   0  0  0  0  0  0
   -7.7382   10.5083  -12.9418 C   0  0  0  0  0  0
   -8.2467   10.0312  -13.7647 H   0  0  0  0  0  0
   -4.6817    9.8876   -8.0453 C   0  0  0  0  0  0
   -4.7346    8.8893   -8.4581 H   0  0  0  0  0  0
   -3.4250   10.4873   -7.8275 C   0  0  0  0  0  0
   -2.5253    9.9381   -8.0602 H   0  0  0  0  0  0
  1  2  1  0  0  0
  2 11  1  0  0  0
  2  3  2  0  0  0
  3  4  1  0  0  0
  4  5  1  0  0  0
  4  9  1  0  0  0
  5  6  1  0  0  0
  5  7  1  0  0  0
  5  8  1  0  0  0
  9 10  1  0  0  0
  9 11  2  0  0  0
 11 12  1  0  0  0
 12 44  1  0  0  0
 12 13  2  0  0  0
 13 14  1  0  0  0
 13 15  1  0  0  0
 15 16  1  0  0  0
 15 17  2  0  0  0
 17 18  1  0  0  0
 17 42  1  0  0  0
 18 19  1  0  0  0
 18 20  1  0  0  0
 18 21  1  0  0  0
 21 26  1  0  0  0
 21 22  2  0  0  0
 22 23  1  0  0  0
 23 24  1  0  0  0
 23 25  1  0  0  0
 25 40  1  0  0  0
 25 26  2  0  0  0
 26 27  1  0  0  0
 27 28  1  0  0  0
 27 29  2  0  0  0
 29 30  1  0  0  0
 29 38  1  0  0  0
 30 31  2  0  0  0
 30 32  1  0  0  0
 32 33  1  0  0  0
 32 34  1  0  0  0
 34 35  1  0  0  0
 34 36  1  0  0  0
 34 37  1  0  0  0
 38 39  1  0  0  0
 38 40  2  0  0  0
 40 41  1  0  0  0
 42 43  1  0  0  0
 42 44  2  0  0  0
 44 45  1  0  0  0
M  END
> <s_m_source_file>
ligprep_cdk8.smi

> <i_m_source_file_index>
7

> <i_lp_mmshare_version>
53161

> <i_f3d_flags>
0

> <s_epik_input>
W0NIM11uMW5bY0hdYyhbY0hdMSktYzJbY0hdW2NIXWMoW2NIXVtjSF0yKVtDSDJdYyhuW25IXTMpYyhjMzQpW2NIXWMoW2NIXVtjSF00KUMoPU8pW05IXVtDSDNd

> <s_epik_cmdline>
J2VwaWtfcHl0aG9uJywgJy1waHQnLCAnMC4wJywgJy1waCcsICc3LjQnLCAnLXRuJywgJzgnLCAnLW1hJywgJzUwMCcsICctaW1hZScsICc8aW5maWxlLm1hZT4nLCAnLW9tYWUnLCAnPG91dGZpbGUubWFlPic=

> <r_lp_tautomer_probability>
1

> <r_epik_Ionization_Penalty>
  0.0001

> <r_epik_Ionization_Penalty_Charging>
  0.0000

> <r_epik_Ionization_Penalty_Neutral>
  0.0001

> <r_epik_State_Penalty>
 -0.0000

> <r_epik_Charging_Adjusted_Penalty>
0

> <i_epik_Tot_Q>
0

> <i_epik_Tot_abs_Q>
0

> <s_lp_Force_Field>
S-OPLS

> <r_lp_Energy>
29.8922

> <b_lp_Chiralities_Consistent>
1

> <s_lp_Variant>
lig_19-1

> <s_i_glide_gridfile>
glide-grid_CDK8-5HNB

> <i_i_glide_lignum>
7

> <i_i_glide_rotatable_bonds>
5

> <r_i_docking_score>
-9.36773760044422

> <r_i_glide_ligand_efficiency>
-0.360297600017085

> <r_i_glide_ligand_efficiency_sa>
-1.06738022234802

> <r_i_glide_ligand_efficiency_ln>
-2.19998243741015

> <r_i_glide_gscore>
-9.36773760044422

> <r_i_glide_lipo>
-3.65517112840644

> <r_i_glide_hbond>
-0.564815206488583

> <r_i_glide_metal>
-0

> <r_i_glide_rewards>
-2.57276123120319

> <r_i_glide_evdw>
-43.5557899475098

> <r_i_glide_ecoul>
-6.36400032043457

> <r_i_glide_erotb>
0.557399511094677

> <r_i_glide_esite>
0

> <r_i_glide_emodel>
-77.3119786906484

> <r_i_glide_energy>
-49.9197902679443

> <r_i_glide_einternal>
1.53324115276337

> <i_i_glide_confnum>
3

> <i_i_glide_posenum>
3

> <r_i_glide_eff_state_penalty>
-0

> <r_i_glide_rmsd>
0.0884067745386703

> <s_glide_core_constrain_type>
snapped_core_restrain

$$$$
lig_44
                    3D
 Schrodinger Suite 2022-3.
 46 50  0  0  1  0            999 V2000
   -0.6192   13.6547  -10.7890 H   0  0  0  0  0  0
   -1.4595   13.9807  -10.4872 O   0  0  0  0  0  0
   -2.3767   13.7729  -11.5398 C   0  0  0  0  0  0
   -1.7965   13.6025  -12.4454 H   0  0  0  0  0  0
   -3.4455   12.6834  -11.3790 C   0  0  0  0  0  0
   -3.4386   11.9441  -12.1855 H   0  0  0  0  0  0
   -3.4777   12.2273  -10.3867 H   0  0  0  0  0  0
   -4.4285   13.7439  -11.5520 N   0  0  0  0  0  0
   -5.6323   13.5844  -12.2493 C   0  0  0  0  0  0
   -6.0584   14.4279  -13.0402 O   0  0  0  0  0  0
   -6.3843   12.3044  -12.0434 C   0  0  0  0  0  0
   -6.4929   11.7422  -10.7504 C   0  0  0  0  0  0
   -6.0136   12.2272   -9.9122 H   0  0  0  0  0  0
   -7.2202   10.5505  -10.5273 C   0  0  0  0  0  0
   -7.8340    9.9413  -11.6558 C   0  0  0  0  0  0
   -7.7610   10.4990  -12.9424 C   0  0  0  0  0  0
   -8.2469   10.0187  -13.7794 H   0  0  0  0  0  0
   -7.0416   11.6915  -13.1319 C   0  0  0  0  0  0
   -6.9805   12.1277  -14.1173 H   0  0  0  0  0  0
   -8.4191    8.8072  -11.1334 N   0  0  0  0  0  0
   -8.9591    8.1188  -11.6485 H   0  0  0  0  0  0
   -8.2472    8.6761   -9.7943 N   0  0  0  0  0  0
   -7.5424    9.7106   -9.4036 C   0  0  0  0  0  0
   -7.2031    9.8904   -7.9481 C   0  0  0  0  0  0
   -7.9741   10.4873   -7.4598 H   0  0  0  0  0  0
   -7.2158    8.9282   -7.4362 H   0  0  0  0  0  0
   -5.8444   10.5231   -7.7038 C   0  0  0  0  0  0
   -5.7491   11.7683   -7.0404 C   0  0  0  0  0  0
   -6.6438   12.2744   -6.7130 H   0  0  0  0  0  0
   -4.4919   12.3665   -6.7956 C   0  0  0  0  0  0
   -3.3334   11.6773   -7.2472 C   0  0  0  0  0  0
   -3.4115   10.4379   -7.9031 C   0  0  0  0  0  0
   -2.5076    9.9362   -8.2154 H   0  0  0  0  0  0
   -4.6746    9.8593   -8.1294 C   0  0  0  0  0  0
   -4.7439    8.9033   -8.6277 H   0  0  0  0  0  0
   -2.2809   12.4986   -6.8674 N   0  0  0  0  0  0
   -0.8633   12.2852   -7.0671 C   0  0  0  0  0  0
   -0.4811   11.6164   -6.2943 H   0  0  0  0  0  0
   -0.6921   11.8346   -8.0458 H   0  0  0  0  0  0
   -0.3276   13.2364   -7.0207 H   0  0  0  0  0  0
   -2.6908   13.6214   -6.2186 N   0  0  0  0  0  0
   -3.9994   13.5542   -6.1671 C   0  0  0  0  0  0
   -4.5531   14.3411   -5.6783 H   0  0  0  0  0  0
   -3.4751   14.8195  -11.7892 C   0  0  0  0  0  0
   -3.5347   15.6158  -11.0425 H   0  0  0  0  0  0
   -3.4768   15.2116  -12.8072 H   0  0  0  0  0  0
  1  2  1  0  0  0
  2  3  1  0  0  0
  3 44  1  0  0  0
  3  4  1  0  0  0
  3  5  1  0  0  0
  5  6  1  0  0  0
  5  7  1  0  0  0
  5  8  1  0  0  0
  8  9  1  0  0  0
  8 44  1  0  0  0
  9 10  2  0  0  0
  9 11  1  0  0  0
 11 18  1  0  0  0
 11 12  2  0  0  0
 12 13  1  0  0  0
 12 14  1  0  0  0
 14 23  1  0  0  0
 14 15  2  0  0  0
 15 16  1  0  0  0
 15 20  1  0  0  0
 16 17  1  0  0  0
 16 18  2  0  0  0
 18 19  1  0  0  0
 20 21  1  0  0  0
 20 22  1  0  0  0
 22 23  2  0  0  0
 23 24  1  0  0  0
 24 25  1  0  0  0
 24 26  1  0  0  0
 24 27  1  0  0  0
 27 34  1  0  0  0
 27 28  2  0  0  0
 28 29  1  0  0  0
 28 30  1  0  0  0
 30 42  1  0  0  0
 30 31  2  0  0  0
 31 32  1  0  0  0
 31 36  1  0  0  0
 32 33  1  0  0  0
 32 34  2  0  0  0
 34 35  1  0  0  0
 36 37  1  0  0  0
 36 41  1  0  0  0
 37 38  1  0  0  0
 37 39  1  0  0  0
 37 40  1  0  0  0
 41 42  2  0  0  0
 42 43  1  0  0  0
 44 45  1  0  0  0
 44 46  1  0  0  0
M  END
> <s_m_source_file>
ligprep_cdk8.smi

> <i_m_source_file_index>
32

> <i_lp_mmshare_version>
53161

> <i_f3d_flags>
0

> <s_epik_input>
W09IXVtDSF0xW0NIMl1OKFtDSDJdMSlDKD1PKWMoW2NIXTIpW2NIXVtjSF1jKGMyMylbbkhdbmMzW0NIMl1jKFtjSF00KVtjSF1bY0hdYyhjNDUpbihbQ0gzXSluW2NIXTU=

> <s_epik_cmdline>
J2VwaWtfcHl0aG9uJywgJy1waHQnLCAnMC4wJywgJy1waCcsICc3LjQnLCAnLXRuJywgJzgnLCAnLW1hJywgJzUwMCcsICctaW1hZScsICc8aW5maWxlLm1hZT4nLCAnLW9tYWUnLCAnPG91dGZpbGUubWFlPic=

> <r_lp_tautomer_probability>
1

> <r_epik_Ionization_Penalty>
  0.0000

> <r_epik_Ionization_Penalty_Charging>
  0.0000

> <r_epik_Ionization_Penalty_Neutral>
  0.0000

> <r_epik_State_Penalty>
 -0.0000

> <r_epik_Charging_Adjusted_Penalty>
0

> <i_epik_Tot_Q>
0

> <i_epik_Tot_abs_Q>
0

> <s_lp_Force_Field>
S-OPLS

> <r_lp_Energy>
28.3299

> <b_lp_Chiralities_Consistent>
1

> <s_lp_Variant>
lig_44-1

> <s_i_glide_gridfile>
glide-grid_CDK8-5HNB

> <i_i_glide_lignum>
32

> <i_i_glide_rotatable_bonds>
5

> <r_i_docking_score>
-9.33828307501759

> <r_i_glide_ligand_efficiency>
-0.345862336111762

> <r_i_glide_ligand_efficiency_sa>
-1.03758700719538

> <r_i_glide_ligand_efficiency_ln>
-2.17379834623547

> <r_i_glide_gscore>
-9.33828307501759

> <r_i_glide_lipo>
-3.86505615364436

> <r_i_glide_hbond>
-0.584326222144165

> <r_i_glide_metal>
-0

> <r_i_glide_rewards>
-1.92298582149976

> <r_i_glide_evdw>
-45.8832817077637

> <r_i_glide_ecoul>
-7.22100639343262

> <r_i_glide_erotb>
0.411400166673767

> <r_i_glide_esite>
0

> <r_i_glide_emodel>
-81.4186261092399

> <r_i_glide_energy>
-53.1042881011963

> <r_i_glide_einternal>
1.58026564121246

> <i_i_glide_confnum>
10

> <i_i_glide_posenum>
4

> <r_i_glide_eff_state_penalty>
-0

> <r_i_glide_rmsd>
0.0790028697441203

> <s_glide_core_constrain_type>
snapped_core_restrain

$$$$
lig_33
                    3D
 Schrodinger Suite 2022-3.
 49 53  0  0  1  0            999 V2000
   -0.6727   10.6449   -6.3601 H   0  0  0  0  0  0
   -0.8339   11.6823   -6.5908 C   0  0  0  0  0  0
    0.1684   12.5296   -6.4451 N   0  0  0  0  0  0
   -0.3279   13.7266   -6.8235 N   0  0  0  0  0  0
    0.5463   14.8779   -6.8390 C   0  0  0  0  0  0
    0.0224   15.7407   -7.2459 H   0  0  0  0  0  0
    0.8808   15.0999   -5.8266 H   0  0  0  0  0  0
    1.4152   14.6728   -7.4616 H   0  0  0  0  0  0
   -1.6675   13.6521   -7.1451 C   0  0  0  0  0  0
   -2.2384   14.5156   -7.4495 H   0  0  0  0  0  0
   -2.0185   12.3404   -7.0142 C   0  0  0  0  0  0
   -3.3348   11.7306   -7.2513 C   0  0  0  0  0  0
   -4.5138   12.4215   -6.9023 C   0  0  0  0  0  0
   -4.4487   13.4033   -6.4567 H   0  0  0  0  0  0
   -5.7777   11.8420   -7.1146 C   0  0  0  0  0  0
   -6.6626   12.3904   -6.8358 H   0  0  0  0  0  0
   -5.8829   10.5611   -7.6931 C   0  0  0  0  0  0
   -7.2452    9.9353   -7.9407 C   0  0  0  0  0  0
   -8.0171   10.5672   -7.4939 H   0  0  0  0  0  0
   -7.2807    8.9836   -7.4049 H   0  0  0  0  0  0
   -7.5520    9.7211   -9.3991 C   0  0  0  0  0  0
   -8.2452    8.6808   -9.7950 N   0  0  0  0  0  0
   -8.4037    8.8073  -11.1360 N   0  0  0  0  0  0
   -8.9322    8.1181  -11.6591 H   0  0  0  0  0  0
   -7.8162    9.9373  -11.6561 C   0  0  0  0  0  0
   -7.2163   10.5474  -10.5240 C   0  0  0  0  0  0
   -6.4915   11.7365  -10.7420 C   0  0  0  0  0  0
   -6.0070   12.2060   -9.9011 H   0  0  0  0  0  0
   -6.3824   12.3096  -12.0279 C   0  0  0  0  0  0
   -5.6368   13.5939  -12.1944 C   0  0  0  0  0  0
   -6.1084   14.5220  -12.8452 O   0  0  0  0  0  0
   -4.4737   13.6470  -11.5384 N   0  0  0  0  0  0
   -4.1757   12.8025  -11.0725 H   0  0  0  0  0  0
   -3.7462   14.8361  -11.2818 C   0  0  0  0  0  0
   -4.3158   15.7635  -11.2659 H   0  0  0  0  0  0
   -2.6417   14.7190  -10.2592 C   0  0  0  0  0  0
   -2.3983   13.7334   -9.8661 H   0  0  0  0  0  0
   -2.5012   15.5530   -9.5771 H   0  0  0  0  0  0
   -2.3066   14.9458  -11.7027 C   0  0  0  0  0  0
   -1.9868   15.9391  -11.9945 H   0  0  0  0  0  0
   -1.8512   14.1268  -12.2563 H   0  0  0  0  0  0
   -7.0291   11.7010  -13.1260 C   0  0  0  0  0  0
   -6.9758   12.1430  -14.1117 H   0  0  0  0  0  0
   -7.7388   10.4994  -12.9398 C   0  0  0  0  0  0
   -8.2215   10.0180  -13.7741 H   0  0  0  0  0  0
   -4.7106    9.8657   -8.0462 C   0  0  0  0  0  0
   -4.7786    8.8822   -8.4863 H   0  0  0  0  0  0
   -3.4471   10.4441   -7.8215 C   0  0  0  0  0  0
   -2.5586    9.8970   -8.1029 H   0  0  0  0  0  0
  1  2  1  0  0  0
  2 11  1  0  0  0
  2  3  2  0  0  0
  3  4  1  0  0  0
  4  5  1  0  0  0
  4  9  1  0  0  0
  5  6  1  0  0  0
  5  7  1  0  0  0
  5  8  1  0  0  0
  9 10  1  0  0  0
  9 11  2  0  0  0
 11 12  1  0  0  0
 12 48  1  0  0  0
 12 13  2  0  0  0
 13 14  1  0  0  0
 13 15  1  0  0  0
 15 16  1  0  0  0
 15 17  2  0  0  0
 17 18  1  0  0  0
 17 46  1  0  0  0
 18 19  1  0  0  0
 18 20  1  0  0  0
 18 21  1  0  0  0
 21 26  1  0  0  0
 21 22  2  0  0  0
 22 23  1  0  0  0
 23 24  1  0  0  0
 23 25  1  0  0  0
 25 44  1  0  0  0
 25 26  2  0  0  0
 26 27  1  0  0  0
 27 28  1  0  0  0
 27 29  2  0  0  0
 29 30  1  0  0  0
 29 42  1  0  0  0
 30 31  2  0  0  0
 30 32  1  0  0  0
 32 33  1  0  0  0
 32 34  1  0  0  0
 34 39  1  0  0  0
 34 35  1  0  0  0
 34 36  1  0  0  0
 36 37  1  0  0  0
 36 38  1  0  0  0
 36 39  1  0  0  0
 39 40  1  0  0  0
 39 41  1  0  0  0
 42 43  1  0  0  0
 42 44  2  0  0  0
 44 45  1  0  0  0
 46 47  1  0  0  0
 46 48  2  0  0  0
 48 49  1  0  0  0
M  END
> <s_m_source_file>
ligprep_cdk8.smi

> <i_m_source_file_index>
21

> <i_lp_mmshare_version>
53161

> <i_f3d_flags>
0

> <s_epik_input>
W0NIM11uMW5bY0hdYyhbY0hdMSktYzJbY0hdW2NIXWMoW2NIXVtjSF0yKVtDSDJdYyhuW25IXTMpYyhjMzQpW2NIXWMoW2NIXVtjSF00KUMoPU8pW05IXVtDSF01W0NIMl1bQ0gyXTU=

> <s_epik_cmdline>
J2VwaWtfcHl0aG9uJywgJy1waHQnLCAnMC4wJywgJy1waCcsICc3LjQnLCAnLXRuJywgJzgnLCAnLW1hJywgJzUwMCcsICctaW1hZScsICc8aW5maWxlLm1hZT4nLCAnLW9tYWUnLCAnPG91dGZpbGUubWFlPic=

> <r_lp_tautomer_probability>
1

> <r_epik_Ionization_Penalty>
  0.0001

> <r_epik_Ionization_Penalty_Charging>
  0.0000

> <r_epik_Ionization_Penalty_Neutral>
  0.0001

> <r_epik_State_Penalty>
 -0.0000

> <r_epik_Charging_Adjusted_Penalty>
0

> <i_epik_Tot_Q>
0

> <i_epik_Tot_abs_Q>
0

> <s_lp_Force_Field>
S-OPLS

> <r_lp_Energy>
33.0927

> <b_lp_Chiralities_Consistent>
1

> <s_lp_Variant>
lig_33-1

> <s_i_glide_gridfile>
glide-grid_CDK8-5HNB

> <i_i_glide_lignum>
21

> <i_i_glide_rotatable_bonds>
6

> <r_i_docking_score>
-9.31585192336208

> <r_i_glide_ligand_efficiency>
-0.332708997262931

> <r_i_glide_ligand_efficiency_sa>
-1.01030047081025

> <r_i_glide_ligand_efficiency_ln>
-2.15037214920985

> <r_i_glide_gscore>
-9.31585192336208

> <r_i_glide_lipo>
-3.83119645792711

> <r_i_glide_hbond>
-0.574046332723365

> <r_i_glide_metal>
-0

> <r_i_glide_rewards>
-2.3873296801093

> <r_i_glide_evdw>
-43.0612106323242

> <r_i_glide_ecoul>
-6.38571977615356

> <r_i_glide_erotb>
0.587639045436936

> <r_i_glide_esite>
0

> <r_i_glide_emodel>
-75.5200656800822

> <r_i_glide_energy>
-49.4469304084778

> <r_i_glide_einternal>
5.00434350967407

> <i_i_glide_confnum>
4

> <i_i_glide_posenum>
2

> <r_i_glide_eff_state_penalty>
-0

> <r_i_glide_rmsd>
0.0730233589400994

> <s_glide_core_constrain_type>
snapped_core_restrain

$$$$
lig_25
                    3D
 Schrodinger Suite 2022-3.
 46 49  0  0  1  0            999 V2000
   -1.9550   14.3553   -7.9444 H   0  0  0  0  0  0
   -1.4969   13.5922   -7.3325 C   0  0  0  0  0  0
   -0.2962   13.8090   -6.8141 N   0  0  0  0  0  0
   -0.0214   12.6985   -6.0896 N   0  0  0  0  0  0
    1.2093   12.6228   -5.3361 C   0  0  0  0  0  0
    1.2280   11.7119   -4.7372 H   0  0  0  0  0  0
    1.2835   13.4844   -4.6722 H   0  0  0  0  0  0
    2.0565   12.6201   -6.0204 H   0  0  0  0  0  0
   -1.0292   11.7618   -6.1701 C   0  0  0  0  0  0
   -0.9831   10.8169   -5.6496 H   0  0  0  0  0  0
   -2.0008   12.3201   -6.9471 C   0  0  0  0  0  0
   -3.3083   11.7354   -7.2644 C   0  0  0  0  0  0
   -4.4940   12.4514   -6.9977 C   0  0  0  0  0  0
   -4.4379   13.4518   -6.5917 H   0  0  0  0  0  0
   -5.7541   11.8610   -7.2165 C   0  0  0  0  0  0
   -6.6488   12.4185   -6.9835 H   0  0  0  0  0  0
   -5.8434   10.5535   -7.7361 C   0  0  0  0  0  0
   -7.1971    9.9091   -7.9611 C   0  0  0  0  0  0
   -7.2068    8.9495   -7.4412 H   0  0  0  0  0  0
   -7.9696   10.5140   -7.4867 H   0  0  0  0  0  0
   -7.5358    9.7215   -9.4114 C   0  0  0  0  0  0
   -8.2438    8.6890   -9.7980 N   0  0  0  0  0  0
   -8.4115    8.8152  -11.1358 N   0  0  0  0  0  0
   -8.9457    8.1242  -11.6509 H   0  0  0  0  0  0
   -7.8327    9.9523  -11.6589 C   0  0  0  0  0  0
   -7.2146   10.5650  -10.5340 C   0  0  0  0  0  0
   -6.4941   11.7562  -10.7650 C   0  0  0  0  0  0
   -6.0126   12.2411   -9.9295 H   0  0  0  0  0  0
   -6.4022   12.3225  -12.0558 C   0  0  0  0  0  0
   -5.6851   13.4973  -12.2804 N   0  0  0  0  0  0
   -5.8596   13.9286  -13.1729 H   0  0  0  0  0  0
   -4.2545   14.0744  -11.4943 S   0  0  0  0  0  0
   -3.8315   15.2165  -12.3140 O   0  0  0  0  0  0
   -4.5781   14.2425  -10.0708 O   0  0  0  0  0  0
   -3.0765   12.6782  -11.6963 C   0  0  0  0  0  0
   -2.0956   12.9795  -11.3271 H   0  0  0  0  0  0
   -3.4292   11.8206  -11.1249 H   0  0  0  0  0  0
   -2.9991   12.4087  -12.7477 H   0  0  0  0  0  0
   -7.0562   11.7058  -13.1419 C   0  0  0  0  0  0
   -7.0044   12.1346  -14.1332 H   0  0  0  0  0  0
   -7.7711   10.5118  -12.9446 C   0  0  0  0  0  0
   -8.2639   10.0312  -13.7759 H   0  0  0  0  0  0
   -4.6628    9.8451   -8.0393 C   0  0  0  0  0  0
   -4.7195    8.8416   -8.4378 H   0  0  0  0  0  0
   -3.4062   10.4291   -7.7922 C   0  0  0  0  0  0
   -2.5076    9.8640   -7.9995 H   0  0  0  0  0  0
  1  2  1  0  0  0
  2 11  1  0  0  0
  2  3  2  0  0  0
  3  4  1  0  0  0
  4  5  1  0  0  0
  4  9  1  0  0  0
  5  6  1  0  0  0
  5  7  1  0  0  0
  5  8  1  0  0  0
  9 10  1  0  0  0
  9 11  2  0  0  0
 11 12  1  0  0  0
 12 45  1  0  0  0
 12 13  2  0  0  0
 13 14  1  0  0  0
 13 15  1  0  0  0
 15 16  1  0  0  0
 15 17  2  0  0  0
 17 18  1  0  0  0
 17 43  1  0  0  0
 18 19  1  0  0  0
 18 20  1  0  0  0
 18 21  1  0  0  0
 21 26  1  0  0  0
 21 22  2  0  0  0
 22 23  1  0  0  0
 23 24  1  0  0  0
 23 25  1  0  0  0
 25 41  1  0  0  0
 25 26  2  0  0  0
 26 27  1  0  0  0
 27 28  1  0  0  0
 27 29  2  0  0  0
 29 30  1  0  0  0
 29 39  1  0  0  0
 30 31  1  0  0  0
 30 32  1  0  0  0
 32 33  2  0  0  0
 32 34  2  0  0  0
 32 35  1  0  0  0
 35 36  1  0  0  0
 35 37  1  0  0  0
 35 38  1  0  0  0
 39 40  1  0  0  0
 39 41  2  0  0  0
 41 42  1  0  0  0
 43 44  1  0  0  0
 43 45  2  0  0  0
 45 46  1  0  0  0
M  END
> <s_m_source_file>
ligprep_cdk8.smi

> <i_m_source_file_index>
13

> <i_lp_mmshare_version>
53161

> <i_f3d_flags>
0

> <s_epik_input>
W0NIM11uMW5bY0hdYyhbY0hdMSktYzJbY0hdW2NIXWMoW2NIXVtjSF0yKVtDSDJdYyhuW25IXTMpYyhjMzQpW2NIXWMoW2NIXVtjSF00KVtOSF1TKD1PKSg9TylbQ0gzXQ==

> <s_epik_cmdline>
J2VwaWtfcHl0aG9uJywgJy1waHQnLCAnMC4wJywgJy1waCcsICc3LjQnLCAnLXRuJywgJzgnLCAnLW1hJywgJzUwMCcsICctaW1hZScsICc8aW5maWxlLm1hZT4nLCAnLW9tYWUnLCAnPG91dGZpbGUubWFlPic=

> <r_lp_tautomer_probability>
1

> <r_epik_Ionization_Penalty>
  0.0437

> <r_epik_Ionization_Penalty_Charging>
  0.0000

> <r_epik_Ionization_Penalty_Neutral>
  0.0437

> <r_epik_State_Penalty>
  0.0369

> <r_epik_Charging_Adjusted_Penalty>
0.0369299

> <i_epik_Tot_Q>
0

> <i_epik_Tot_abs_Q>
0

> <s_lp_Force_Field>
S-OPLS

> <r_lp_Energy>
21.3957

> <b_lp_Chiralities_Consistent>
1

> <s_lp_Variant>
lig_25-1

> <s_i_glide_gridfile>
glide-grid_CDK8-5HNB

> <i_i_glide_lignum>
13

> <i_i_glide_rotatable_bonds>
5

> <r_i_docking_score>
-9.27135741293198

> <r_i_glide_ligand_efficiency>
-0.34338360788637

> <r_i_glide_ligand_efficiency_sa>
-1.03015082252737

> <r_i_glide_ligand_efficiency_ln>
-2.15821915545772

> <r_i_glide_gscore>
-9.30825741293198

> <r_i_glide_lipo>
-4.03148022762947

> <r_i_glide_hbond>
-0.57602510908241

> <r_i_glide_metal>
-0

> <r_i_glide_rewards>
-2.1682067180199

> <r_i_glide_evdw>
-47.4260177612305

> <r_i_glide_ecoul>
-3.38653659820557

> <r_i_glide_erotb>
0.373534126496202

> <r_i_glide_esite>
-0.0267981069040493

> <r_i_glide_emodel>
-76.3611326861506

> <r_i_glide_energy>
-50.812554359436

> <r_i_glide_einternal>
4.68399906158447

> <i_i_glide_confnum>
1

> <i_i_glide_posenum>
5

> <r_i_glide_eff_state_penalty>
0.0369

> <r_i_glide_rmsd>
0.0827991668799873

> <s_glide_core_constrain_type>
snapped_core_restrain

$$$$
lig_16
                    3D
 Schrodinger Suite 2022-3.
 38 40  0  0  1  0            999 V2000
   -2.5641    9.8575   -8.1989 H   0  0  0  0  0  0
   -3.4471   10.4004   -7.8953 C   0  0  0  0  0  0
   -4.7245    9.8410   -8.0896 C   0  0  0  0  0  0
   -4.8166    8.8695   -8.5535 H   0  0  0  0  0  0
   -5.8781   10.5481   -7.6908 C   0  0  0  0  0  0
   -7.2552    9.9489   -7.9154 C   0  0  0  0  0  0
   -8.0196   10.5907   -7.4756 H   0  0  0  0  0  0
   -7.3050    9.0139   -7.3538 H   0  0  0  0  0  0
   -7.5710    9.7340   -9.3717 C   0  0  0  0  0  0
   -8.2459    8.6803   -9.7626 N   0  0  0  0  0  0
   -8.4024    8.7947  -11.1052 N   0  0  0  0  0  0
   -8.9114    8.0880  -11.6243 H   0  0  0  0  0  0
   -7.8390    9.9405  -11.6289 C   0  0  0  0  0  0
   -7.2481   10.5680  -10.4991 C   0  0  0  0  0  0
   -6.5377   11.7710  -10.7274 C   0  0  0  0  0  0
   -6.0769   12.2731   -9.8893 H   0  0  0  0  0  0
   -6.4129   12.3190  -12.0247 C   0  0  0  0  0  0
   -5.6228   13.5726  -12.2481 C   0  0  0  0  0  0
   -6.0233   14.4497  -13.0089 O   0  0  0  0  0  0
   -4.4542   13.6347  -11.6006 N   0  0  0  0  0  0
   -4.1662   12.8274  -11.0668 H   0  0  0  0  0  0
   -3.5773   14.7942  -11.6394 C   0  0  0  0  0  0
   -2.6559   14.5939  -11.0961 H   0  0  0  0  0  0
   -4.0698   15.6499  -11.1802 H   0  0  0  0  0  0
   -3.3214   15.0649  -12.6631 H   0  0  0  0  0  0
   -7.0572   11.6943  -13.1143 C   0  0  0  0  0  0
   -6.9852   12.1241  -14.1041 H   0  0  0  0  0  0
   -7.7717   10.4962  -12.9171 C   0  0  0  0  0  0
   -8.2521   10.0155  -13.7543 H   0  0  0  0  0  0
   -5.7425   11.8195   -7.0956 C   0  0  0  0  0  0
   -6.6223   12.3717   -6.8004 H   0  0  0  0  0  0
   -4.4631   12.3811   -6.9001 C   0  0  0  0  0  0
   -4.3235   13.7476   -6.2627 C   0  0  0  0  0  0
   -3.4073   14.2435   -6.5856 H   0  0  0  0  0  0
   -5.1620   14.3823   -6.5444 H   0  0  0  0  0  0
   -4.3037   13.6607   -5.1758 H   0  0  0  0  0  0
   -3.3155   11.6675   -7.3008 C   0  0  0  0  0  0
   -2.3304   12.0867   -7.1561 H   0  0  0  0  0  0
  1  2  1  0  0  0
  2 37  1  0  0  0
  2  3  2  0  0  0
  3  4  1  0  0  0
  3  5  1  0  0  0
  5  6  1  0  0  0
  5 30  2  0  0  0
  6  7  1  0  0  0
  6  8  1  0  0  0
  6  9  1  0  0  0
  9 14  1  0  0  0
  9 10  2  0  0  0
 10 11  1  0  0  0
 11 12  1  0  0  0
 11 13  1  0  0  0
 13 28  1  0  0  0
 13 14  2  0  0  0
 14 15  1  0  0  0
 15 16  1  0  0  0
 15 17  2  0  0  0
 17 18  1  0  0  0
 17 26  1  0  0  0
 18 19  2  0  0  0
 18 20  1  0  0  0
 20 21  1  0  0  0
 20 22  1  0  0  0
 22 23  1  0  0  0
 22 24  1  0  0  0
 22 25  1  0  0  0
 26 27  1  0  0  0
 26 28  2  0  0  0
 28 29  1  0  0  0
 30 31  1  0  0  0
 30 32  1  0  0  0
 32 33  1  0  0  0
 32 37  2  0  0  0
 33 34  1  0  0  0
 33 35  1  0  0  0
 33 36  1  0  0  0
 37 38  1  0  0  0
M  END
> <s_m_source_file>
ligprep_cdk8.smi

> <i_m_source_file_index>
4

> <i_lp_mmshare_version>
53161

> <i_f3d_flags>
0

> <s_epik_input>
W2NIXTFjKFtDSDNdKVtjSF1bY0hdW2NIXWMxW0NIMl1jKG5bbkhdMiljKGMyMylbY0hdYyhbY0hdW2NIXTMpQyg9TylbTkhdW0NIM10=

> <s_epik_cmdline>
J2VwaWtfcHl0aG9uJywgJy1waHQnLCAnMC4wJywgJy1waCcsICc3LjQnLCAnLXRuJywgJzgnLCAnLW1hJywgJzUwMCcsICctaW1hZScsICc8aW5maWxlLm1hZT4nLCAnLW9tYWUnLCAnPG91dGZpbGUubWFlPic=

> <r_lp_tautomer_probability>
1

> <r_epik_Ionization_Penalty>
  0.0000

> <r_epik_Ionization_Penalty_Charging>
  0.0000

> <r_epik_Ionization_Penalty_Neutral>
  0.0000

> <r_epik_State_Penalty>
 -0.0000

> <r_epik_Charging_Adjusted_Penalty>
0

> <i_epik_Tot_Q>
0

> <i_epik_Tot_abs_Q>
0

> <s_lp_Force_Field>
S-OPLS

> <r_lp_Energy>
26.1708

> <b_lp_Chiralities_Consistent>
1

> <s_lp_Variant>
lig_16-1

> <s_i_glide_gridfile>
glide-grid_CDK8-5HNB

> <i_i_glide_lignum>
4

> <i_i_glide_rotatable_bonds>
4

> <r_i_docking_score>
-9.23933545447708

> <r_i_glide_ligand_efficiency>
-0.439968354975099

> <r_i_glide_ligand_efficiency_sa>
-1.21383933015158

> <r_i_glide_ligand_efficiency_ln>
-2.28440702128425

> <r_i_glide_gscore>
-9.23933545447708

> <r_i_glide_lipo>
-3.70051898408769

> <r_i_glide_hbond>
-0.571778573199324

> <r_i_glide_metal>
-0

> <r_i_glide_rewards>
-2.93859608931379

> <r_i_glide_evdw>
-37.1343955993652

> <r_i_glide_ecoul>
-5.46080780029297

> <r_i_glide_erotb>
0.647399142135927

> <r_i_glide_esite>
0

> <r_i_glide_emodel>
-67.1180093199648

> <r_i_glide_energy>
-42.5952033996582

> <r_i_glide_einternal>
0.0712583139538765

> <i_i_glide_confnum>
1

> <i_i_glide_posenum>
1

> <r_i_glide_eff_state_penalty>
-0

> <r_i_glide_rmsd>
0.0429385453011049

> <s_glide_core_constrain_type>
snapped_core_restrain

$$$$
lig_29
                    3D
 Schrodinger Suite 2022-3.
 50 54  0  0  1  0            999 V2000
   -2.0517   14.3352   -7.9195 H   0  0  0  0  0  0
   -1.5705   13.5811   -7.3117 C   0  0  0  0  0  0
   -0.3610   13.8150   -6.8160 N   0  0  0  0  0  0
   -0.0540   12.7040   -6.1034 N   0  0  0  0  0  0
    1.1920   12.6372   -5.3655 C   0  0  0  0  0  0
    1.2595   11.6863   -4.8336 H   0  0  0  0  0  0
    1.2377   13.4534   -4.6425 H   0  0  0  0  0  0
    2.0397   12.7210   -6.0464 H   0  0  0  0  0  0
   -1.0530   11.7566   -6.1715 C   0  0  0  0  0  0
   -0.9846   10.8157   -5.6543 H   0  0  0  0  0  0
   -2.0513   12.3029   -6.9220 C   0  0  0  0  0  0
   -3.3590   11.7006   -7.2228 C   0  0  0  0  0  0
   -4.5514   12.3833   -6.8997 C   0  0  0  0  0  0
   -4.5059   13.3671   -6.4559 H   0  0  0  0  0  0
   -5.8059   11.7804   -7.1176 C   0  0  0  0  0  0
   -6.7034   12.3169   -6.8479 H   0  0  0  0  0  0
   -5.8883   10.4930   -7.6874 C   0  0  0  0  0  0
   -7.2434    9.8375   -7.9138 C   0  0  0  0  0  0
   -7.2450    8.8759   -7.3962 H   0  0  0  0  0  0
   -8.0189   10.4351   -7.4288 H   0  0  0  0  0  0
   -7.5891    9.6523   -9.3621 C   0  0  0  0  0  0
   -8.2466    8.5998   -9.7845 N   0  0  0  0  0  0
   -8.4314    8.7693  -11.1184 N   0  0  0  0  0  0
   -8.9400    8.0750  -11.6537 H   0  0  0  0  0  0
   -7.8889    9.9404  -11.6055 C   0  0  0  0  0  0
   -7.3009   10.5304  -10.4544 C   0  0  0  0  0  0
   -6.6036   11.7387  -10.6271 C   0  0  0  0  0  0
   -6.1023   12.1908   -9.7846 H   0  0  0  0  0  0
   -6.4796   12.3133  -11.9003 C   0  0  0  0  0  0
   -5.3305   13.6560  -12.0856 S   0  0  0  0  0  0
   -5.8464   14.6383  -13.0506 O   0  0  0  0  0  0
   -4.8326   14.0612  -10.7651 O   0  0  0  0  0  0
   -4.0677   12.8167  -12.8455 N   0  0  1  0  0  0
   -3.4516   13.4845  -13.3064 H   0  0  0  0  0  0
   -3.2921   11.8707  -12.0702 C   0  0  0  0  0  0
   -3.8559   10.9700  -11.8437 H   0  0  0  0  0  0
   -1.8467   11.7544  -12.4377 C   0  0  0  0  0  0
   -1.4467   10.7554  -12.4466 H   0  0  0  0  0  0
   -1.4419   12.4156  -13.1986 H   0  0  0  0  0  0
   -2.2314   12.3649  -11.1113 C   0  0  0  0  0  0
   -2.1059   13.4404  -11.0000 H   0  0  0  0  0  0
   -2.0356   11.7770  -10.2164 H   0  0  0  0  0  0
   -7.1082   11.7435  -13.0275 C   0  0  0  0  0  0
   -6.9904   12.1930  -14.0025 H   0  0  0  0  0  0
   -7.8315   10.5442  -12.8749 C   0  0  0  0  0  0
   -8.2982   10.0762  -13.7288 H   0  0  0  0  0  0
   -4.7019    9.8210   -8.0452 C   0  0  0  0  0  0
   -4.7485    8.8357   -8.4895 H   0  0  0  0  0  0
   -3.4476   10.4152   -7.7984 C   0  0  0  0  0  0
   -2.5453    9.8749   -8.0474 H   0  0  0  0  0  0
  1  2  1  0  0  0
  2 11  1  0  0  0
  2  3  2  0  0  0
  3  4  1  0  0  0
  4  5  1  0  0  0
  4  9  1  0  0  0
  5  6  1  0  0  0
  5  7  1  0  0  0
  5  8  1  0  0  0
  9 10  1  0  0  0
  9 11  2  0  0  0
 11 12  1  0  0  0
 12 49  1  0  0  0
 12 13  2  0  0  0
 13 14  1  0  0  0
 13 15  1  0  0  0
 15 16  1  0  0  0
 15 17  2  0  0  0
 17 18  1  0  0  0
 17 47  1  0  0  0
 18 19  1  0  0  0
 18 20  1  0  0  0
 18 21  1  0  0  0
 21 26  1  0  0  0
 21 22  2  0  0  0
 22 23  1  0  0  0
 23 24  1  0  0  0
 23 25  1  0  0  0
 25 45  1  0  0  0
 25 26  2  0  0  0
 26 27  1  0  0  0
 27 28  1  0  0  0
 27 29  2  0  0  0
 29 30  1  0  0  0
 29 43  1  0  0  0
 30 31  2  0  0  0
 30 32  2  0  0  0
 30 33  1  0  0  0
 33 34  1  0  0  0
 33 35  1  0  0  0
 35 40  1  0  0  0
 35 36  1  0  0  0
 35 37  1  0  0  0
 37 38  1  0  0  0
 37 39  1  0  0  0
 37 40  1  0  0  0
 40 41  1  0  0  0
 40 42  1  0  0  0
 43 44  1  0  0  0
 43 45  2  0  0  0
 45 46  1  0  0  0
 47 48  1  0  0  0
 47 49  2  0  0  0
 49 50  1  0  0  0
M  END
> <s_m_source_file>
ligprep_cdk8.smi

> <i_m_source_file_index>
17

> <i_lp_mmshare_version>
53161

> <i_f3d_flags>
0

> <s_epik_input>
W0NIM11uMW5bY0hdYyhbY0hdMSktYzJbY0hdW2NIXWMoW2NIXVtjSF0yKVtDSDJdYyhuW25IXTMpYyhjMzQpW2NIXWMoW2NIXVtjSF00KVMoPU8pKD1PKVtOSF1bQ0hdNVtDSDJdW0NIMl01

> <s_epik_cmdline>
J2VwaWtfcHl0aG9uJywgJy1waHQnLCAnMC4wJywgJy1waCcsICc3LjQnLCAnLXRuJywgJzgnLCAnLW1hJywgJzUwMCcsICctaW1hZScsICc8aW5maWxlLm1hZT4nLCAnLW9tYWUnLCAnPG91dGZpbGUubWFlPic=

> <r_lp_tautomer_probability>
1

> <r_epik_Ionization_Penalty>
  0.0001

> <r_epik_Ionization_Penalty_Charging>
  0.0000

> <r_epik_Ionization_Penalty_Neutral>
  0.0001

> <r_epik_State_Penalty>
 -0.0000

> <r_epik_Charging_Adjusted_Penalty>
0

> <i_epik_Tot_Q>
0

> <i_epik_Tot_abs_Q>
0

> <s_lp_Force_Field>
S-OPLS

> <r_lp_Energy>
12.5394

> <b_lp_Chiralities_Consistent>
1

> <s_lp_Variant>
lig_29-1

> <s_i_glide_gridfile>
glide-grid_CDK8-5HNB

> <i_i_glide_lignum>
17

> <i_i_glide_rotatable_bonds>
6

> <r_i_docking_score>
-9.13851497414702

> <r_i_glide_ligand_efficiency>
-0.31512120600507

> <r_i_glide_ligand_efficiency_sa>
-0.968152182253107

> <r_i_glide_ligand_efficiency_ln>
-2.09248819633437

> <r_i_glide_gscore>
-9.13851497414702

> <r_i_glide_lipo>
-4.14330936554399

> <r_i_glide_hbond>
-0.596828183314699

> <r_i_glide_metal>
-0

> <r_i_glide_rewards>
-1.90904410556852

> <r_i_glide_evdw>
-45.620059967041

> <r_i_glide_ecoul>
-4.70613384246826

> <r_i_glide_erotb>
0.497589755002476

> <r_i_glide_esite>
0

> <r_i_glide_emodel>
-73.1739211904159

> <r_i_glide_energy>
-50.3261938095093

> <r_i_glide_einternal>
5.96039485931396

> <i_i_glide_confnum>
7

> <i_i_glide_posenum>
36

> <r_i_glide_eff_state_penalty>
-0

> <r_i_glide_rmsd>
0.0907311326952742

> <s_glide_core_constrain_type>
snapped_core_restrain

$$$$
lig_17
                    3D
 Schrodinger Suite 2022-3.
 41 44  0  0  1  0            999 V2000
   -1.0887   12.2197   -7.2039 H   0  0  0  0  0  0
   -2.1427   12.4096   -7.0598 C   0  0  0  0  0  0
   -2.5429   13.5295   -6.5251 N   0  0  0  0  0  0
   -3.8966   13.4247   -6.4864 N   0  0  0  0  0  0
   -4.6459   14.4161   -5.8839 C   0  0  0  0  0  0
   -4.6478   14.1672   -4.8454 H   0  0  0  0  0  0
   -4.1279   15.3560   -6.0454 H   0  0  0  0  0  0
   -5.6594   14.4159   -6.2837 H   0  0  0  0  0  0
   -4.4205   12.2777   -6.9791 C   0  0  0  0  0  0
   -3.2600   11.5774   -7.3575 C   0  0  0  0  0  0
   -3.4316   10.2886   -7.9075 C   0  0  0  0  0  0
   -2.5583    9.7200   -8.1937 H   0  0  0  0  0  0
   -4.7179    9.7379   -8.0785 C   0  0  0  0  0  0
   -4.8211    8.7498   -8.5050 H   0  0  0  0  0  0
   -5.8637   10.4698   -7.7036 C   0  0  0  0  0  0
   -7.2428    9.8870   -7.9359 C   0  0  0  0  0  0
   -7.9934   10.5263   -7.4702 H   0  0  0  0  0  0
   -7.2967    8.9308   -7.4129 H   0  0  0  0  0  0
   -7.5604    9.7107   -9.3926 C   0  0  0  0  0  0
   -8.2466    8.6703   -9.7956 N   0  0  0  0  0  0
   -8.4114    8.8095  -11.1319 N   0  0  0  0  0  0
   -8.9405    8.1171  -11.6478 H   0  0  0  0  0  0
   -7.8267    9.9484  -11.6438 C   0  0  0  0  0  0
   -7.2220   10.5544  -10.5097 C   0  0  0  0  0  0
   -6.4918   11.7466  -10.7237 C   0  0  0  0  0  0
   -6.0288   12.2329   -9.8784 H   0  0  0  0  0  0
   -6.3662   12.3095  -12.0160 C   0  0  0  0  0  0
   -5.5890   13.5742  -12.2189 C   0  0  0  0  0  0
   -5.9841   14.4293  -13.0083 O   0  0  0  0  0  0
   -4.4517   13.6768  -11.5142 N   0  0  0  0  0  0
   -4.1883   12.9078  -10.9139 H   0  0  0  0  0  0
   -3.5633   14.8305  -11.5548 C   0  0  0  0  0  0
   -2.6039   14.5899  -11.0932 H   0  0  0  0  0  0
   -4.0021   15.6668  -11.0081 H   0  0  0  0  0  0
   -3.3682   15.1551  -12.5788 H   0  0  0  0  0  0
   -7.0220   11.7022  -13.1105 C   0  0  0  0  0  0
   -6.9572   12.1435  -14.0955 H   0  0  0  0  0  0
   -7.7519   10.5130  -12.9270 C   0  0  0  0  0  0
   -8.2471   10.0398  -13.7619 H   0  0  0  0  0  0
   -5.7162   11.7487   -7.1347 C   0  0  0  0  0  0
   -6.5814   12.3230   -6.8382 H   0  0  0  0  0  0
  1  2  1  0  0  0
  2 10  1  0  0  0
  2  3  2  0  0  0
  3  4  1  0  0  0
  4  5  1  0  0  0
  4  9  1  0  0  0
  5  6  1  0  0  0
  5  7  1  0  0  0
  5  8  1  0  0  0
  9 40  1  0  0  0
  9 10  2  0  0  0
 10 11  1  0  0  0
 11 12  1  0  0  0
 11 13  2  0  0  0
 13 14  1  0  0  0
 13 15  1  0  0  0
 15 16  1  0  0  0
 15 40  2  0  0  0
 16 17  1  0  0  0
 16 18  1  0  0  0
 16 19  1  0  0  0
 19 24  1  0  0  0
 19 20  2  0  0  0
 20 21  1  0  0  0
 21 22  1  0  0  0
 21 23  1  0  0  0
 23 38  1  0  0  0
 23 24  2  0  0  0
 24 25  1  0  0  0
 25 26  1  0  0  0
 25 27  2  0  0  0
 27 28  1  0  0  0
 27 36  1  0  0  0
 28 29  2  0  0  0
 28 30  1  0  0  0
 30 31  1  0  0  0
 30 32  1  0  0  0
 32 33  1  0  0  0
 32 34  1  0  0  0
 32 35  1  0  0  0
 36 37  1  0  0  0
 36 38  2  0  0  0
 38 39  1  0  0  0
 40 41  1  0  0  0
M  END
> <s_m_source_file>
ligprep_cdk8.smi

> <i_m_source_file_index>
5

> <i_lp_mmshare_version>
53161

> <i_f3d_flags>
0

> <s_epik_input>
W0NIM11uMW5bY0hdYyhjMTIpW2NIXVtjSF1jKFtjSF0yKVtDSDJdYyhuW25IXTMpYyhjMzQpW2NIXWMoW2NIXVtjSF00KUMoPU8pW05IXVtDSDNd

> <s_epik_cmdline>
J2VwaWtfcHl0aG9uJywgJy1waHQnLCAnMC4wJywgJy1waCcsICc3LjQnLCAnLXRuJywgJzgnLCAnLW1hJywgJzUwMCcsICctaW1hZScsICc8aW5maWxlLm1hZT4nLCAnLW9tYWUnLCAnPG91dGZpbGUubWFlPic=

> <r_lp_tautomer_probability>
1

> <r_epik_Ionization_Penalty>
  0.0000

> <r_epik_Ionization_Penalty_Charging>
  0.0000

> <r_epik_Ionization_Penalty_Neutral>
  0.0000

> <r_epik_State_Penalty>
 -0.0000

> <r_epik_Charging_Adjusted_Penalty>
0

> <i_epik_Tot_Q>
0

> <i_epik_Tot_abs_Q>
0

> <s_lp_Force_Field>
S-OPLS

> <r_lp_Energy>
29.3781

> <b_lp_Chiralities_Consistent>
1

> <s_lp_Variant>
lig_17-1

> <s_i_glide_gridfile>
glide-grid_CDK8-5HNB

> <i_i_glide_lignum>
5

> <i_i_glide_rotatable_bonds>
4

> <r_i_docking_score>
-9.10101430857581

> <r_i_glide_ligand_efficiency>
-0.379208929523992

> <r_i_glide_ligand_efficiency_sa>
-1.09382783016667

> <r_i_glide_ligand_efficiency_ln>
-2.17829034237644

> <r_i_glide_gscore>
-9.10101430857581

> <r_i_glide_lipo>
-3.54384927414982

> <r_i_glide_hbond>
-0.576357454746312

> <r_i_glide_metal>
-0

> <r_i_glide_rewards>
-2.91037203351727

> <r_i_glide_evdw>
-34.6139068603516

> <r_i_glide_ecoul>
-5.67972612380981

> <r_i_glide_erotb>
0.512218715426649

> <r_i_glide_esite>
0

> <r_i_glide_emodel>
-67.9224324390835

> <r_i_glide_energy>
-40.2936329841614

> <r_i_glide_einternal>
0.0632985755801201

> <i_i_glide_confnum>
3

> <i_i_glide_posenum>
1

> <r_i_glide_eff_state_penalty>
-0

> <r_i_glide_rmsd>
0.0909185382772235

> <s_glide_core_constrain_type>
snapped_core_restrain

$$$$
lig_15
                    3D
 Schrodinger Suite 2022-3.
 43 45  0  0  1  0            999 V2000
   -2.5861    9.8350   -8.1980 H   0  0  0  0  0  0
   -3.4440   10.3966   -7.8648 C   0  0  0  0  0  0
   -4.7219    9.8422   -8.0637 C   0  0  0  0  0  0
   -4.8164    8.8733   -8.5332 H   0  0  0  0  0  0
   -5.8731   10.5557   -7.6813 C   0  0  0  0  0  0
   -7.2503    9.9593   -7.9148 C   0  0  0  0  0  0
   -8.0112   10.6012   -7.4707 H   0  0  0  0  0  0
   -7.3027    9.0215   -7.3592 H   0  0  0  0  0  0
   -7.5678    9.7424   -9.3718 C   0  0  0  0  0  0
   -8.2451    8.6877   -9.7607 N   0  0  0  0  0  0
   -8.4026    8.8002  -11.1033 N   0  0  0  0  0  0
   -8.9126    8.0921  -11.6217 H   0  0  0  0  0  0
   -7.8392    9.9443  -11.6293 C   0  0  0  0  0  0
   -7.2437   10.5726  -10.5010 C   0  0  0  0  0  0
   -6.5312   11.7729  -10.7281 C   0  0  0  0  0  0
   -6.0743   12.2749   -9.8881 H   0  0  0  0  0  0
   -6.4084   12.3182  -12.0268 C   0  0  0  0  0  0
   -5.6195   13.5713  -12.2499 C   0  0  0  0  0  0
   -6.0192   14.4483  -13.0110 O   0  0  0  0  0  0
   -4.4520   13.6350  -11.6003 N   0  0  0  0  0  0
   -4.1615   12.8318  -11.0618 H   0  0  0  0  0  0
   -3.5799   14.7985  -11.6260 C   0  0  0  0  0  0
   -2.6539   14.5935  -11.0906 H   0  0  0  0  0  0
   -4.0734   15.6450  -11.1487 H   0  0  0  0  0  0
   -3.3308   15.0861  -12.6478 H   0  0  0  0  0  0
   -7.0564   11.6930  -13.1143 C   0  0  0  0  0  0
   -6.9881   12.1209  -14.1050 H   0  0  0  0  0  0
   -7.7723   10.4971  -12.9187 C   0  0  0  0  0  0
   -8.2564   10.0160  -13.7556 H   0  0  0  0  0  0
   -5.7331   11.8295   -7.0931 C   0  0  0  0  0  0
   -6.6066   12.4002   -6.8093 H   0  0  0  0  0  0
   -4.4552   12.3844   -6.8783 C   0  0  0  0  0  0
   -4.3911   13.6318   -6.3088 O   0  0  0  0  0  0
   -3.7276   13.6790   -5.0542 C   0  0  0  0  0  0
   -3.6066   14.7176   -4.7521 H   0  0  0  0  0  0
   -4.3082   13.1686   -4.2876 H   0  0  0  0  0  0
   -2.7386   13.2289   -5.0703 H   0  0  0  0  0  0
   -3.2938   11.6746   -7.2791 C   0  0  0  0  0  0
   -2.0623   12.2782   -7.1425 O   0  0  0  0  0  0
   -0.9527   11.4405   -6.8416 C   0  0  0  0  0  0
   -0.0819   12.0604   -6.6259 H   0  0  0  0  0  0
   -1.1579   10.8457   -5.9511 H   0  0  0  0  0  0
   -0.6756   10.7747   -7.6572 H   0  0  0  0  0  0
  1  2  1  0  0  0
  2 38  1  0  0  0
  2  3  2  0  0  0
  3  4  1  0  0  0
  3  5  1  0  0  0
  5  6  1  0  0  0
  5 30  2  0  0  0
  6  7  1  0  0  0
  6  8  1  0  0  0
  6  9  1  0  0  0
  9 14  1  0  0  0
  9 10  2  0  0  0
 10 11  1  0  0  0
 11 12  1  0  0  0
 11 13  1  0  0  0
 13 28  1  0  0  0
 13 14  2  0  0  0
 14 15  1  0  0  0
 15 16  1  0  0  0
 15 17  2  0  0  0
 17 18  1  0  0  0
 17 26  1  0  0  0
 18 19  2  0  0  0
 18 20  1  0  0  0
 20 21  1  0  0  0
 20 22  1  0  0  0
 22 23  1  0  0  0
 22 24  1  0  0  0
 22 25  1  0  0  0
 26 27  1  0  0  0
 26 28  2  0  0  0
 28 29  1  0  0  0
 30 31  1  0  0  0
 30 32  1  0  0  0
 32 33  1  0  0  0
 32 38  2  0  0  0
 33 34  1  0  0  0
 34 35  1  0  0  0
 34 36  1  0  0  0
 34 37  1  0  0  0
 38 39  1  0  0  0
 39 40  1  0  0  0
 40 41  1  0  0  0
 40 42  1  0  0  0
 40 43  1  0  0  0
M  END
> <s_m_source_file>
ligprep_cdk8.smi

> <i_m_source_file_index>
3

> <i_lp_mmshare_version>
53161

> <i_f3d_flags>
0

> <s_epik_input>
W0NIM11PYyhbY0hdMSljKE9bQ0gzXSlbY0hdW2NIXWMxW0NIMl1jKG5bbkhdMiljKGMyMylbY0hdYyhbY0hdW2NIXTMpQyg9TylbTkhdW0NIM10=

> <s_epik_cmdline>
J2VwaWtfcHl0aG9uJywgJy1waHQnLCAnMC4wJywgJy1waCcsICc3LjQnLCAnLXRuJywgJzgnLCAnLW1hJywgJzUwMCcsICctaW1hZScsICc8aW5maWxlLm1hZT4nLCAnLW9tYWUnLCAnPG91dGZpbGUubWFlPic=

> <r_lp_tautomer_probability>
1

> <r_epik_Ionization_Penalty>
  0.0000

> <r_epik_Ionization_Penalty_Charging>
  0.0000

> <r_epik_Ionization_Penalty_Neutral>
  0.0000

> <r_epik_State_Penalty>
 -0.0000

> <r_epik_Charging_Adjusted_Penalty>
0

> <i_epik_Tot_Q>
0

> <i_epik_Tot_abs_Q>
0

> <s_lp_Force_Field>
S-OPLS

> <r_lp_Energy>
32.899

> <b_lp_Chiralities_Consistent>
1

> <s_lp_Variant>
lig_15-1

> <s_i_glide_gridfile>
glide-grid_CDK8-5HNB

> <i_i_glide_lignum>
3

> <i_i_glide_rotatable_bonds>
6

> <r_i_docking_score>
-9.09554955831408

> <r_i_glide_ligand_efficiency>
-0.37898123159642

> <r_i_glide_ligand_efficiency_sa>
-1.09317103569097

> <r_i_glide_ligand_efficiency_ln>
-2.17698237687775

> <r_i_glide_gscore>
-9.09554955831408

> <r_i_glide_lipo>
-3.58990408250477

> <r_i_glide_hbond>
-0.569998151560781

> <r_i_glide_metal>
-0

> <r_i_glide_rewards>
-2.62474038316686

> <r_i_glide_evdw>
-41.1540031433105

> <r_i_glide_ecoul>
-6.64481973648071

> <r_i_glide_erotb>
0.743516176555971

> <r_i_glide_esite>
0

> <r_i_glide_emodel>
-70.9498979577164

> <r_i_glide_energy>
-47.7988228797913

> <r_i_glide_einternal>
7.97600984573364

> <i_i_glide_confnum>
15

> <i_i_glide_posenum>
11

> <r_i_glide_eff_state_penalty>
-0

> <r_i_glide_rmsd>
0.0487887026520733

> <s_glide_core_constrain_type>
snapped_core_restrain

$$$$
lig_36
                    3D
 Schrodinger Suite 2022-3.
 53 57  0  0  1  0            999 V2000
   -2.2034   14.5485   -7.5978 H   0  0  0  0  0  0
   -1.6637   13.7493   -7.1064 C   0  0  0  0  0  0
   -0.4567   13.9880   -6.6062 N   0  0  0  0  0  0
   -0.0657   12.8080   -6.0653 N   0  0  0  0  0  0
    1.2031   12.7191   -5.3684 C   0  0  0  0  0  0
    1.3695   11.7029   -5.0052 H   0  0  0  0  0  0
    2.0190   12.9895   -6.0395 H   0  0  0  0  0  0
    1.2052   13.4034   -4.5170 H   0  0  0  0  0  0
   -1.0074   11.8192   -6.2479 C   0  0  0  0  0  0
   -0.8710   10.8167   -5.8718 H   0  0  0  0  0  0
   -2.0564   12.3987   -6.8973 C   0  0  0  0  0  0
   -3.3416   11.7739   -7.2451 C   0  0  0  0  0  0
   -4.5461   12.4544   -6.9740 C   0  0  0  0  0  0
   -4.5215   13.4485   -6.5472 H   0  0  0  0  0  0
   -5.7907   11.8439   -7.2145 C   0  0  0  0  0  0
   -6.6979   12.3821   -6.9860 H   0  0  0  0  0  0
   -5.8511   10.5429   -7.7483 C   0  0  0  0  0  0
   -7.1954    9.8752   -7.9874 C   0  0  0  0  0  0
   -7.9740   10.4359   -7.4883 H   0  0  0  0  0  0
   -7.1683    8.8978   -7.4935 H   0  0  0  0  0  0
   -7.5393    9.6986   -9.4440 C   0  0  0  0  0  0
   -8.2461    8.6683   -9.8380 N   0  0  0  0  0  0
   -8.4273    8.8113  -11.1738 N   0  0  0  0  0  0
   -8.9775    8.1309  -11.6879 H   0  0  0  0  0  0
   -7.8362    9.9437  -11.6932 C   0  0  0  0  0  0
   -7.2238   10.5437  -10.5618 C   0  0  0  0  0  0
   -6.5058   11.7366  -10.7795 C   0  0  0  0  0  0
   -6.0326   12.2119   -9.9350 H   0  0  0  0  0  0
   -6.3830   12.3051  -12.0658 C   0  0  0  0  0  0
   -5.6102   13.5780  -12.2414 C   0  0  0  0  0  0
   -6.0066   14.4376  -13.0248 O   0  0  0  0  0  0
   -4.4191   13.7191  -11.5185 N   0  0  0  0  0  0
   -3.4310   12.6540  -11.4366 C   0  0  0  0  0  0
   -3.4129   12.0054  -12.3142 H   0  0  0  0  0  0
   -3.4593   12.0937  -10.5042 H   0  0  0  0  0  0
   -2.3631   13.7546  -11.4707 C   0  0  0  0  0  0
   -1.6337   13.6022  -12.2665 H   0  0  0  0  0  0
   -1.7700   13.9826  -10.2028 O   0  0  0  0  0  0
   -0.6928   14.9050  -10.2735 C   0  0  0  0  0  0
   -0.3335   15.1335   -9.2710 H   0  0  0  0  0  0
   -0.9880   15.8423  -10.7452 H   0  0  0  0  0  0
    0.1381   14.4878  -10.8392 H   0  0  0  0  0  0
   -3.4577   14.7749  -11.8066 C   0  0  0  0  0  0
   -3.5193   15.6114  -11.1113 H   0  0  0  0  0  0
   -3.4441   15.1025  -12.8454 H   0  0  0  0  0  0
   -7.0373   11.7006  -13.1621 C   0  0  0  0  0  0
   -6.9754   12.1367  -14.1492 H   0  0  0  0  0  0
   -7.7659   10.5117  -12.9766 C   0  0  0  0  0  0
   -8.2623   10.0462  -13.8144 H   0  0  0  0  0  0
   -4.6536    9.8632   -8.0473 C   0  0  0  0  0  0
   -4.6886    8.8670   -8.4653 H   0  0  0  0  0  0
   -3.4097   10.4759   -7.7994 C   0  0  0  0  0  0
   -2.5017    9.9349   -8.0226 H   0  0  0  0  0  0
  1  2  1  0  0  0
  2 11  1  0  0  0
  2  3  2  0  0  0
  3  4  1  0  0  0
  4  5  1  0  0  0
  4  9  1  0  0  0
  5  6  1  0  0  0
  5  7  1  0  0  0
  5  8  1  0  0  0
  9 10  1  0  0  0
  9 11  2  0  0  0
 11 12  1  0  0  0
 12 52  1  0  0  0
 12 13  2  0  0  0
 13 14  1  0  0  0
 13 15  1  0  0  0
 15 16  1  0  0  0
 15 17  2  0  0  0
 17 18  1  0  0  0
 17 50  1  0  0  0
 18 19  1  0  0  0
 18 20  1  0  0  0
 18 21  1  0  0  0
 21 26  1  0  0  0
 21 22  2  0  0  0
 22 23  1  0  0  0
 23 24  1  0  0  0
 23 25  1  0  0  0
 25 48  1  0  0  0
 25 26  2  0  0  0
 26 27  1  0  0  0
 27 28  1  0  0  0
 27 29  2  0  0  0
 29 30  1  0  0  0
 29 46  1  0  0  0
 30 31  2  0  0  0
 30 32  1  0  0  0
 32 43  1  0  0  0
 32 33  1  0  0  0
 33 34  1  0  0  0
 33 35  1  0  0  0
 33 36  1  0  0  0
 36 37  1  0  0  0
 36 38  1  0  0  0
 36 43  1  0  0  0
 38 39  1  0  0  0
 39 40  1  0  0  0
 39 41  1  0  0  0
 39 42  1  0  0  0
 43 44  1  0  0  0
 43 45  1  0  0  0
 46 47  1  0  0  0
 46 48  2  0  0  0
 48 49  1  0  0  0
 50 51  1  0  0  0
 50 52  2  0  0  0
 52 53  1  0  0  0
M  END
> <s_m_source_file>
ligprep_cdk8.smi

> <i_m_source_file_index>
24

> <i_lp_mmshare_version>
53161

> <i_f3d_flags>
0

> <s_epik_input>
W0NIM11uMW5bY0hdYyhbY0hdMSktYzJbY0hdW2NIXWMoW2NIXVtjSF0yKVtDSDJdYyhuW25IXTMpYyhjMzQpW2NIXWMoW2NIXVtjSF00KUMoPU8pTjVbQ0gyXVtDSF0oW0NIMl01KU9bQ0gzXQ==

> <s_epik_cmdline>
J2VwaWtfcHl0aG9uJywgJy1waHQnLCAnMC4wJywgJy1waCcsICc3LjQnLCAnLXRuJywgJzgnLCAnLW1hJywgJzUwMCcsICctaW1hZScsICc8aW5maWxlLm1hZT4nLCAnLW9tYWUnLCAnPG91dGZpbGUubWFlPic=

> <r_lp_tautomer_probability>
1

> <r_epik_Ionization_Penalty>
  0.0001

> <r_epik_Ionization_Penalty_Charging>
  0.0000

> <r_epik_Ionization_Penalty_Neutral>
  0.0001

> <r_epik_State_Penalty>
 -0.0000

> <r_epik_Charging_Adjusted_Penalty>
0

> <i_epik_Tot_Q>
0

> <i_epik_Tot_abs_Q>
0

> <s_lp_Force_Field>
S-OPLS

> <r_lp_Energy>
30.1367

> <b_lp_Chiralities_Consistent>
1

> <s_lp_Variant>
lig_36-1

> <s_i_glide_gridfile>
glide-grid_CDK8-5HNB

> <i_i_glide_lignum>
24

> <i_i_glide_rotatable_bonds>
6

> <r_i_docking_score>
-9.03367644608855

> <r_i_glide_ligand_efficiency>
-0.301122548202952

> <r_i_glide_ligand_efficiency_sa>
-0.935657768991084

> <r_i_glide_ligand_efficiency_ln>
-2.05254971833981

> <r_i_glide_gscore>
-9.03367644608855

> <r_i_glide_lipo>
-4.03866360582834

> <r_i_glide_hbond>
-0.594067695547253

> <r_i_glide_metal>
-0

> <r_i_glide_rewards>
-1.48139586663682

> <r_i_glide_evdw>
-49.8638572692871

> <r_i_glide_ecoul>
-5.68200969696045

> <r_i_glide_erotb>
0.425945039932287

> <r_i_glide_esite>
0

> <r_i_glide_emodel>
-81.3372436226134

> <r_i_glide_energy>
-55.5458669662476

> <r_i_glide_einternal>
3.57349395751953

> <i_i_glide_confnum>
7

> <i_i_glide_posenum>
16

> <r_i_glide_eff_state_penalty>
-0

> <r_i_glide_rmsd>
0.0992361475204669

> <s_glide_core_constrain_type>
snapped_core_restrain

$$$$
lig_27
                    3D
 Schrodinger Suite 2022-3.
 53 56  0  0  1  0            999 V2000
   -2.5357   14.4782   -6.2716 H   0  0  0  0  0  0
   -1.8433   13.6533   -6.3459 C   0  0  0  0  0  0
   -0.5968   13.8280   -5.9313 N   0  0  0  0  0  0
   -0.0026   12.6256   -6.1106 N   0  0  0  0  0  0
    1.3664   12.4350   -5.6795 C   0  0  0  0  0  0
    1.4099   12.4193   -4.5901 H   0  0  0  0  0  0
    1.7475   11.4881   -6.0612 H   0  0  0  0  0  0
    1.9918   13.2480   -6.0462 H   0  0  0  0  0  0
   -0.8579   11.7069   -6.6837 C   0  0  0  0  0  0
   -0.5446   10.7029   -6.9055 H   0  0  0  0  0  0
   -2.0715   12.3212   -6.7950 C   0  0  0  0  0  0
   -3.3595   11.7181   -7.1962 C   0  0  0  0  0  0
   -3.4321   10.4308   -7.7744 C   0  0  0  0  0  0
   -2.5279    9.8821   -7.9962 H   0  0  0  0  0  0
   -4.6806    9.8320   -8.0453 C   0  0  0  0  0  0
   -4.7146    8.8420   -8.4763 H   0  0  0  0  0  0
   -5.8799   10.5045   -7.7300 C   0  0  0  0  0  0
   -7.2296    9.8456   -7.9720 C   0  0  0  0  0  0
   -8.0102   10.4262   -7.4782 H   0  0  0  0  0  0
   -7.2221    8.8779   -7.4687 H   0  0  0  0  0  0
   -7.5733    9.6728   -9.4261 C   0  0  0  0  0  0
   -8.2379    8.6220   -9.8453 N   0  0  0  0  0  0
   -8.3994    8.7757  -11.1830 N   0  0  0  0  0  0
   -8.9093    8.0811  -11.7178 H   0  0  0  0  0  0
   -7.8516    9.9429  -11.6730 C   0  0  0  0  0  0
   -7.2895   10.5540  -10.5223 C   0  0  0  0  0  0
   -6.6309   11.7872  -10.7004 C   0  0  0  0  0  0
   -6.2010   12.2619   -9.8342 H   0  0  0  0  0  0
   -6.5144   12.3840  -11.9752 C   0  0  0  0  0  0
   -5.8073   13.5803  -12.1540 N   0  0  0  0  0  0
   -5.6418   13.8521  -13.1114 H   0  0  0  0  0  0
   -4.6896   13.8045  -11.2468 C   0  0  0  0  0  0
   -4.1958   12.8468  -11.0791 H   0  0  0  0  0  0
   -5.0467   14.1446  -10.2754 H   0  0  0  0  0  0
   -3.6856   14.8214  -11.7980 C   0  0  0  0  0  0
   -4.1208   15.8209  -11.7844 H   0  0  0  0  0  0
   -3.4468   14.6086  -12.8380 H   0  0  0  0  0  0
   -2.4605   14.8389  -11.0101 N   0  0  0  0  0  0
   -2.2254   15.7169  -10.5705 H   0  0  0  0  0  0
   -1.5862   13.8314  -10.8817 C   0  0  0  0  0  0
   -1.7413   12.7257  -11.3984 O   0  0  0  0  0  0
   -0.3511   14.1260  -10.0405 C   0  0  0  0  0  0
   -0.6308   14.5564   -9.0782 H   0  0  0  0  0  0
    0.2994   14.8270  -10.5634 H   0  0  0  0  0  0
    0.2150   13.2158   -9.8538 H   0  0  0  0  0  0
   -7.1074   11.7587  -13.0942 C   0  0  0  0  0  0
   -7.0406   12.2100  -14.0735 H   0  0  0  0  0  0
   -7.7865   10.5347  -12.9443 C   0  0  0  0  0  0
   -8.2463   10.0564  -13.7962 H   0  0  0  0  0  0
   -5.8156   11.7944   -7.1698 C   0  0  0  0  0  0
   -6.7212   12.3284   -6.9230 H   0  0  0  0  0  0
   -4.5693   12.3946   -6.9160 C   0  0  0  0  0  0
   -4.5557   13.3741   -6.4624 H   0  0  0  0  0  0
  1  2  1  0  0  0
  2 11  1  0  0  0
  2  3  2  0  0  0
  3  4  1  0  0  0
  4  5  1  0  0  0
  4  9  1  0  0  0
  5  6  1  0  0  0
  5  7  1  0  0  0
  5  8  1  0  0  0
  9 10  1  0  0  0
  9 11  2  0  0  0
 11 12  1  0  0  0
 12 52  1  0  0  0
 12 13  2  0  0  0
 13 14  1  0  0  0
 13 15  1  0  0  0
 15 16  1  0  0  0
 15 17  2  0  0  0
 17 18  1  0  0  0
 17 50  1  0  0  0
 18 19  1  0  0  0
 18 20  1  0  0  0
 18 21  1  0  0  0
 21 26  1  0  0  0
 21 22  2  0  0  0
 22 23  1  0  0  0
 23 24  1  0  0  0
 23 25  1  0  0  0
 25 48  1  0  0  0
 25 26  2  0  0  0
 26 27  1  0  0  0
 27 28  1  0  0  0
 27 29  2  0  0  0
 29 30  1  0  0  0
 29 46  1  0  0  0
 30 31  1  0  0  0
 30 32  1  0  0  0
 32 33  1  0  0  0
 32 34  1  0  0  0
 32 35  1  0  0  0
 35 36  1  0  0  0
 35 37  1  0  0  0
 35 38  1  0  0  0
 38 39  1  0  0  0
 38 40  1  0  0  0
 40 41  2  0  0  0
 40 42  1  0  0  0
 42 43  1  0  0  0
 42 44  1  0  0  0
 42 45  1  0  0  0
 46 47  1  0  0  0
 46 48  2  0  0  0
 48 49  1  0  0  0
 50 51  1  0  0  0
 50 52  2  0  0  0
 52 53  1  0  0  0
M  END
> <s_m_source_file>
ligprep_cdk8.smi

> <i_m_source_file_index>
15

> <i_lp_mmshare_version>
53161

> <i_f3d_flags>
0

> <s_epik_input>
W0NIM11uMW5bY0hdYyhbY0hdMSktYzJbY0hdW2NIXWMoW2NIXVtjSF0yKVtDSDJdYyhuW25IXTMpYyhjMzQpW2NIXWMoW2NIXVtjSF00KVtOSF1bQ0gyXVtDSDJdW05IXUMoPU8pW0NIM10=

> <s_epik_cmdline>
J2VwaWtfcHl0aG9uJywgJy1waHQnLCAnMC4wJywgJy1waCcsICc3LjQnLCAnLXRuJywgJzgnLCAnLW1hJywgJzUwMCcsICctaW1hZScsICc8aW5maWxlLm1hZT4nLCAnLW9tYWUnLCAnPG91dGZpbGUubWFlPic=

> <r_lp_tautomer_probability>
1

> <r_epik_Ionization_Penalty>
  0.0001

> <r_epik_Ionization_Penalty_Charging>
  0.0000

> <r_epik_Ionization_Penalty_Neutral>
  0.0001

> <r_epik_State_Penalty>
 -0.0000

> <r_epik_Charging_Adjusted_Penalty>
0

> <i_epik_Tot_Q>
0

> <i_epik_Tot_abs_Q>
0

> <s_lp_Force_Field>
S-OPLS

> <r_lp_Energy>
22.807

> <b_lp_Chiralities_Consistent>
1

> <s_lp_Variant>
lig_27-1

> <s_i_glide_gridfile>
glide-grid_CDK8-5HNB

> <i_i_glide_lignum>
15

> <i_i_glide_rotatable_bonds>
8

> <r_i_docking_score>
-8.98561732366113

> <r_i_glide_ligand_efficiency>
-0.309848873229694

> <r_i_glide_ligand_efficiency_sa>
-0.951953905574887

> <r_i_glide_ligand_efficiency_ln>
-2.05747851152299

> <r_i_glide_gscore>
-8.98561732366113

> <r_i_glide_lipo>
-4.04567443686699

> <r_i_glide_hbond>
-0.59049715753775

> <r_i_glide_metal>
-0

> <r_i_glide_rewards>
-1.86935291930081

> <r_i_glide_evdw>
-49.8698997497559

> <r_i_glide_ecoul>
-3.90763187408447

> <r_i_glide_erotb>
0.632667745641404

> <r_i_glide_esite>
-0.0331207869965146

> <r_i_glide_emodel>
-77.6822921751443

> <r_i_glide_energy>
-53.7775316238403

> <r_i_glide_einternal>
8.02942752838135

> <i_i_glide_confnum>
62

> <i_i_glide_posenum>
33

> <r_i_glide_eff_state_penalty>
-0

> <r_i_glide_rmsd>
0.0927183101887446

> <s_glide_core_constrain_type>
snapped_core_restrain

$$$$
lig_24
                    3D
 Schrodinger Suite 2022-3.
 45 48  0  0  1  0            999 V2000
   -0.6528   10.8093   -6.1946 H   0  0  0  0  0  0
   -0.8402   11.8188   -6.5072 C   0  0  0  0  0  0
    0.1344   12.7047   -6.3855 N   0  0  0  0  0  0
   -0.3992   13.8627   -6.8374 N   0  0  0  0  0  0
    0.4215   15.0509   -6.8679 C   0  0  0  0  0  0
   -0.1752   15.9046   -7.1911 H   0  0  0  0  0  0
    0.8150   15.2472   -5.8711 H   0  0  0  0  0  0
    1.2497   14.9066   -7.5633 H   0  0  0  0  0  0
   -1.7162   13.7179   -7.2207 C   0  0  0  0  0  0
   -2.3066   14.5395   -7.6011 H   0  0  0  0  0  0
   -2.0301   12.4067   -7.0148 C   0  0  0  0  0  0
   -3.3309   11.7608   -7.2571 C   0  0  0  0  0  0
   -3.4228   10.4553   -7.7868 C   0  0  0  0  0  0
   -2.5253    9.9018   -8.0155 H   0  0  0  0  0  0
   -4.6782    9.8700   -8.0457 C   0  0  0  0  0  0
   -4.7314    8.8746   -8.4610 H   0  0  0  0  0  0
   -5.8640   10.5710   -7.7415 C   0  0  0  0  0  0
   -7.2193    9.9345   -7.9886 C   0  0  0  0  0  0
   -7.9935   10.5386   -7.5157 H   0  0  0  0  0  0
   -7.2351    8.9763   -7.4668 H   0  0  0  0  0  0
   -7.5463    9.7430   -9.4431 C   0  0  0  0  0  0
   -8.2464    8.7020   -9.8288 N   0  0  0  0  0  0
   -8.4073    8.8163  -11.1681 N   0  0  0  0  0  0
   -8.9384    8.1181  -11.6772 H   0  0  0  0  0  0
   -7.8304    9.9528  -11.6939 C   0  0  0  0  0  0
   -7.2261   10.5801  -10.5700 C   0  0  0  0  0  0
   -6.5115   11.7786  -10.8045 C   0  0  0  0  0  0
   -6.0445   12.2635   -9.9619 H   0  0  0  0  0  0
   -6.3933   12.3233  -12.1074 C   0  0  0  0  0  0
   -5.6733   13.5153  -12.3971 N   0  0  0  0  0  0
   -5.8855   13.9380  -13.2847 H   0  0  0  0  0  0
   -4.7037   14.1224  -11.6876 C   0  0  0  0  0  0
   -4.2475   13.7190  -10.6191 O   0  0  0  0  0  0
   -4.1741   15.4169  -12.2915 C   0  0  0  0  0  0
   -3.8468   15.2565  -13.3161 H   0  0  0  0  0  0
   -3.3311   15.7988  -11.7168 H   0  0  0  0  0  0
   -4.9576   16.1719  -12.3016 H   0  0  0  0  0  0
   -7.0442   11.6901  -13.1867 C   0  0  0  0  0  0
   -6.9879   12.1087  -14.1823 H   0  0  0  0  0  0
   -7.7641   10.5007  -12.9839 C   0  0  0  0  0  0
   -8.2576   10.0177  -13.8122 H   0  0  0  0  0  0
   -5.7797   11.8699   -7.2014 C   0  0  0  0  0  0
   -6.6757   12.4242   -6.9673 H   0  0  0  0  0  0
   -4.5239   12.4584   -6.9686 C   0  0  0  0  0  0
   -4.4793   13.4585   -6.5630 H   0  0  0  0  0  0
  1  2  1  0  0  0
  2 11  1  0  0  0
  2  3  2  0  0  0
  3  4  1  0  0  0
  4  5  1  0  0  0
  4  9  1  0  0  0
  5  6  1  0  0  0
  5  7  1  0  0  0
  5  8  1  0  0  0
  9 10  1  0  0  0
  9 11  2  0  0  0
 11 12  1  0  0  0
 12 44  1  0  0  0
 12 13  2  0  0  0
 13 14  1  0  0  0
 13 15  1  0  0  0
 15 16  1  0  0  0
 15 17  2  0  0  0
 17 18  1  0  0  0
 17 42  1  0  0  0
 18 19  1  0  0  0
 18 20  1  0  0  0
 18 21  1  0  0  0
 21 26  1  0  0  0
 21 22  2  0  0  0
 22 23  1  0  0  0
 23 24  1  0  0  0
 23 25  1  0  0  0
 25 40  1  0  0  0
 25 26  2  0  0  0
 26 27  1  0  0  0
 27 28  1  0  0  0
 27 29  2  0  0  0
 29 30  1  0  0  0
 29 38  1  0  0  0
 30 31  1  0  0  0
 30 32  1  0  0  0
 32 33  2  0  0  0
 32 34  1  0  0  0
 34 35  1  0  0  0
 34 36  1  0  0  0
 34 37  1  0  0  0
 38 39  1  0  0  0
 38 40  2  0  0  0
 40 41  1  0  0  0
 42 43  1  0  0  0
 42 44  2  0  0  0
 44 45  1  0  0  0
M  END
> <s_m_source_file>
ligprep_cdk8.smi

> <i_m_source_file_index>
12

> <i_lp_mmshare_version>
53161

> <i_f3d_flags>
0

> <s_epik_input>
W0NIM11uMW5bY0hdYyhbY0hdMSktYzJbY0hdW2NIXWMoW2NIXVtjSF0yKVtDSDJdYyhuW25IXTMpYyhjMzQpW2NIXWMoW2NIXVtjSF00KVtOSF1DKD1PKVtDSDNd

> <s_epik_cmdline>
J2VwaWtfcHl0aG9uJywgJy1waHQnLCAnMC4wJywgJy1waCcsICc3LjQnLCAnLXRuJywgJzgnLCAnLW1hJywgJzUwMCcsICctaW1hZScsICc8aW5maWxlLm1hZT4nLCAnLW9tYWUnLCAnPG91dGZpbGUubWFlPic=

> <r_lp_tautomer_probability>
1

> <r_epik_Ionization_Penalty>
  0.0001

> <r_epik_Ionization_Penalty_Charging>
  0.0000

> <r_epik_Ionization_Penalty_Neutral>
  0.0001

> <r_epik_State_Penalty>
 -0.0000

> <r_epik_Charging_Adjusted_Penalty>
0

> <i_epik_Tot_Q>
0

> <i_epik_Tot_abs_Q>
0

> <s_lp_Force_Field>
S-OPLS

> <r_lp_Energy>
28.8209

> <b_lp_Chiralities_Consistent>
1

> <s_lp_Variant>
lig_24-1

> <s_i_glide_gridfile>
glide-grid_CDK8-5HNB

> <i_i_glide_lignum>
12

> <i_i_glide_rotatable_bonds>
5

> <r_i_docking_score>
-8.80483730396803

> <r_i_glide_ligand_efficiency>
-0.338647588614155

> <r_i_glide_ligand_efficiency_sa>
-1.00324214875552

> <r_i_glide_ligand_efficiency_ln>
-2.06778714980924

> <r_i_glide_gscore>
-8.80483730396803

> <r_i_glide_lipo>
-3.66333541887105

> <r_i_glide_hbond>
-0.580191302632339

> <r_i_glide_metal>
-0

> <r_i_glide_rewards>
-2.34317912351124

> <r_i_glide_evdw>
-44.0543975830078

> <r_i_glide_ecoul>
-3.07554125785828

> <r_i_glide_erotb>
0.445919608875741

> <r_i_glide_esite>
0

> <r_i_glide_emodel>
-73.0704406959841

> <r_i_glide_energy>
-47.1299388408661

> <r_i_glide_einternal>
1.51513075828552

> <i_i_glide_confnum>
7

> <i_i_glide_posenum>
3

> <r_i_glide_eff_state_penalty>
-0

> <r_i_glide_rmsd>
0.0932679267641041

> <s_glide_core_constrain_type>
snapped_core_restrain

$$$$
lig_14
                    3D
 Schrodinger Suite 2022-3.
 34 35  0  0  1  0            999 V2000
   -6.9673   12.0600  -14.2111 H   0  0  0  0  0  0
   -7.0551   11.6685  -13.2073 C   0  0  0  0  0  0
   -7.7727   10.4779  -12.9865 C   0  0  0  0  0  0
   -8.2470    9.9711  -13.8125 H   0  0  0  0  0  0
   -7.8463    9.9556  -11.6847 C   0  0  0  0  0  0
   -7.2864   10.6330  -10.5687 C   0  0  0  0  0  0
   -7.5886    9.8182   -9.4243 C   0  0  0  0  0  0
   -7.2537   10.0754   -7.9805 C   0  0  0  0  0  0
   -7.3726    9.1677   -7.3866 H   0  0  0  0  0  0
   -7.9917   10.7748   -7.5856 H   0  0  0  0  0  0
   -5.8408   10.6652   -7.7618 C   0  0  0  0  0  0
   -5.6199   11.4519   -8.4611 H   0  0  0  0  0  0
   -4.7425    9.6156   -7.9864 C   0  0  0  0  0  0
   -5.0469    8.6293   -7.6453 H   0  0  0  0  0  0
   -3.8071    9.8845   -7.4954 H   0  0  0  0  0  0
   -4.5253    9.5209   -9.0471 H   0  0  0  0  0  0
   -5.7326   11.4017   -6.4282 C   0  0  0  0  0  0
   -6.1841   10.8165   -5.6453 H   0  0  0  0  0  0
   -4.6991   11.6179   -6.1573 H   0  0  0  0  0  0
   -6.2674   12.3510   -6.4630 H   0  0  0  0  0  0
   -8.2460    8.7418   -9.7867 N   0  0  0  0  0  0
   -8.3976    8.8165  -11.1337 N   0  0  0  0  0  0
   -8.8987    8.0920  -11.6372 H   0  0  0  0  0  0
   -6.6173   11.8513  -10.8250 C   0  0  0  0  0  0
   -6.2272   12.4568  -10.0276 H   0  0  0  0  0  0
   -6.4345   12.3346  -12.1303 C   0  0  0  0  0  0
   -5.6211   13.5736  -12.3421 C   0  0  0  0  0  0
   -6.0415   14.4869  -13.0361 O   0  0  0  0  0  0
   -4.4317   13.6060  -11.7250 N   0  0  0  0  0  0
   -4.1488   12.7973  -11.1921 H   0  0  0  0  0  0
   -3.5206   14.7442  -11.7611 C   0  0  0  0  0  0
   -2.5185   14.4358  -11.4600 H   0  0  0  0  0  0
   -3.4516   15.1786  -12.7604 H   0  0  0  0  0  0
   -3.8573   15.5241  -11.0762 H   0  0  0  0  0  0
  1  2  1  0  0  0
  2 26  1  0  0  0
  2  3  2  0  0  0
  3  4  1  0  0  0
  3  5  1  0  0  0
  5 22  1  0  0  0
  5  6  2  0  0  0
  6  7  1  0  0  0
  6 24  1  0  0  0
  7  8  1  0  0  0
  7 21  2  0  0  0
  8  9  1  0  0  0
  8 10  1  0  0  0
  8 11  1  0  0  0
 11 12  1  0  0  0
 11 13  1  0  0  0
 11 17  1  0  0  0
 13 14  1  0  0  0
 13 15  1  0  0  0
 13 16  1  0  0  0
 17 18  1  0  0  0
 17 19  1  0  0  0
 17 20  1  0  0  0
 21 22  1  0  0  0
 22 23  1  0  0  0
 24 25  1  0  0  0
 24 26  2  0  0  0
 26 27  1  0  0  0
 27 28  2  0  0  0
 27 29  1  0  0  0
 29 30  1  0  0  0
 29 31  1  0  0  0
 31 32  1  0  0  0
 31 33  1  0  0  0
 31 34  1  0  0  0
M  END
> <s_m_source_file>
ligprep_cdk8.smi

> <i_m_source_file_index>
2

> <i_lp_mmshare_version>
53161

> <i_f3d_flags>
0

> <s_epik_input>
W0NIM11bTkhdQyg9TyljKFtjSF1bY0hdMSlbY0hdYyhjMTIpYyhuW25IXTIpW0NIMl1bQ0hdKFtDSDNdKVtDSDNd

> <s_epik_cmdline>
J2VwaWtfcHl0aG9uJywgJy1waHQnLCAnMC4wJywgJy1waCcsICc3LjQnLCAnLXRuJywgJzgnLCAnLW1hJywgJzUwMCcsICctaW1hZScsICc8aW5maWxlLm1hZT4nLCAnLW9tYWUnLCAnPG91dGZpbGUubWFlPic=

> <r_lp_tautomer_probability>
1

> <r_epik_Ionization_Penalty>
  0.0000

> <r_epik_Ionization_Penalty_Charging>
  0.0000

> <r_epik_Ionization_Penalty_Neutral>
  0.0000

> <r_epik_State_Penalty>
 -0.0000

> <r_epik_Charging_Adjusted_Penalty>
0

> <i_epik_Tot_Q>
0

> <i_epik_Tot_abs_Q>
0

> <s_lp_Force_Field>
S-OPLS

> <r_lp_Energy>
14.0736

> <b_lp_Chiralities_Consistent>
1

> <s_lp_Variant>
lig_14-1

> <s_i_glide_gridfile>
glide-grid_CDK8-5HNB

> <i_i_glide_lignum>
2

> <i_i_glide_rotatable_bonds>
4

> <r_i_docking_score>
-8.49323051058433

> <r_i_glide_ligand_efficiency>
-0.499601794740255

> <r_i_glide_ligand_efficiency_sa>
-1.28461689626223

> <r_i_glide_ligand_efficiency_ln>
-2.21569470526704

> <r_i_glide_gscore>
-8.49323051058433

> <r_i_glide_lipo>
-3.07024241172258

> <r_i_glide_hbond>
-0.566334340160292

> <r_i_glide_metal>
-0

> <r_i_glide_rewards>
-3.27366917252149

> <r_i_glide_evdw>
-30.0190353393555

> <r_i_glide_ecoul>
-6.51526260375977

> <r_i_glide_erotb>
0.895256571351767

> <r_i_glide_esite>
0

> <r_i_glide_emodel>
-44.0095972859273

> <r_i_glide_energy>
-36.5342979431152

> <r_i_glide_einternal>
0.509535491466522

> <i_i_glide_confnum>
1

> <i_i_glide_posenum>
5

> <r_i_glide_eff_state_penalty>
-0

> <r_i_glide_rmsd>
0.105337853412141

> <s_glide_core_constrain_type>
snapped_core_restrain

$$$$
lig_34
                    3D
 Schrodinger Suite 2022-3.
 49 53  0  0  1  0            999 V2000
   -0.6374   10.8175   -6.2790 H   0  0  0  0  0  0
   -0.8263   11.8406   -6.5695 C   0  0  0  0  0  0
    0.1482   12.7292   -6.4457 N   0  0  0  0  0  0
   -0.3819   13.8924   -6.8888 N   0  0  0  0  0  0
    0.4455   15.0787   -6.9334 C   0  0  0  0  0  0
   -0.1217   15.9124   -7.3541 H   0  0  0  0  0  0
    0.7762   15.3451   -5.9281 H   0  0  0  0  0  0
    1.3116   14.8910   -7.5691 H   0  0  0  0  0  0
   -1.7072   13.7558   -7.2463 C   0  0  0  0  0  0
   -2.2841   14.5934   -7.6150 H   0  0  0  0  0  0
   -2.0221   12.4376   -7.0585 C   0  0  0  0  0  0
   -3.3185   11.7834   -7.2944 C   0  0  0  0  0  0
   -4.5180   12.4646   -6.9889 C   0  0  0  0  0  0
   -4.4791   13.4613   -6.5745 H   0  0  0  0  0  0
   -5.7683   11.8487   -7.1766 C   0  0  0  0  0  0
   -6.6684   12.3896   -6.9181 H   0  0  0  0  0  0
   -5.8378   10.5491   -7.7228 C   0  0  0  0  0  0
   -7.1798    9.8772   -7.9531 C   0  0  0  0  0  0
   -7.9651   10.4473   -7.4536 H   0  0  0  0  0  0
   -7.1660    8.9048   -7.4533 H   0  0  0  0  0  0
   -7.5252    9.7038   -9.4029 C   0  0  0  0  0  0
   -8.2442    8.6787   -9.7935 N   0  0  0  0  0  0
   -8.4185    8.8164  -11.1312 N   0  0  0  0  0  0
   -8.9505    8.1232  -11.6500 H   0  0  0  0  0  0
   -7.8230    9.9479  -11.6505 C   0  0  0  0  0  0
   -7.2025   10.5506  -10.5194 C   0  0  0  0  0  0
   -6.4856   11.7477  -10.7409 C   0  0  0  0  0  0
   -6.0070   12.2317   -9.8989 H   0  0  0  0  0  0
   -6.3719   12.3074  -12.0332 C   0  0  0  0  0  0
   -5.6159   13.5828  -12.2297 C   0  0  0  0  0  0
   -6.0240   14.4208  -13.0307 O   0  0  0  0  0  0
   -4.4176   13.7233  -11.5205 N   0  0  0  0  0  0
   -3.4326   12.6455  -11.5048 C   0  0  0  0  0  0
   -3.4293   12.0542  -12.4235 H   0  0  0  0  0  0
   -3.4518   12.0293  -10.6003 H   0  0  0  0  0  0
   -2.3636   13.7386  -11.4933 C   0  0  0  0  0  0
   -1.8111   13.9180  -10.2929 F   0  0  0  0  0  0
   -1.4467   13.5644  -12.4450 F   0  0  0  0  0  0
   -3.4497   14.7694  -11.8247 C   0  0  0  0  0  0
   -3.4850   15.6145  -11.1381 H   0  0  0  0  0  0
   -3.4463   15.0886  -12.8638 H   0  0  0  0  0  0
   -7.0295   11.7015  -13.1284 C   0  0  0  0  0  0
   -6.9803   12.1362  -14.1208 H   0  0  0  0  0  0
   -7.7536   10.5108  -12.9362 C   0  0  0  0  0  0
   -8.2572   10.0474  -13.7710 H   0  0  0  0  0  0
   -4.6468    9.8677   -8.0464 C   0  0  0  0  0  0
   -4.6992    8.8693   -8.4586 H   0  0  0  0  0  0
   -3.3941   10.4752   -7.8197 C   0  0  0  0  0  0
   -2.4823    9.9373   -8.0487 H   0  0  0  0  0  0
  1  2  1  0  0  0
  2 11  1  0  0  0
  2  3  2  0  0  0
  3  4  1  0  0  0
  4  5  1  0  0  0
  4  9  1  0  0  0
  5  6  1  0  0  0
  5  7  1  0  0  0
  5  8  1  0  0  0
  9 10  1  0  0  0
  9 11  2  0  0  0
 11 12  1  0  0  0
 12 48  1  0  0  0
 12 13  2  0  0  0
 13 14  1  0  0  0
 13 15  1  0  0  0
 15 16  1  0  0  0
 15 17  2  0  0  0
 17 18  1  0  0  0
 17 46  1  0  0  0
 18 19  1  0  0  0
 18 20  1  0  0  0
 18 21  1  0  0  0
 21 26  1  0  0  0
 21 22  2  0  0  0
 22 23  1  0  0  0
 23 24  1  0  0  0
 23 25  1  0  0  0
 25 44  1  0  0  0
 25 26  2  0  0  0
 26 27  1  0  0  0
 27 28  1  0  0  0
 27 29  2  0  0  0
 29 30  1  0  0  0
 29 42  1  0  0  0
 30 31  2  0  0  0
 30 32  1  0  0  0
 32 39  1  0  0  0
 32 33  1  0  0  0
 33 34  1  0  0  0
 33 35  1  0  0  0
 33 36  1  0  0  0
 36 37  1  0  0  0
 36 38  1  0  0  0
 36 39  1  0  0  0
 39 40  1  0  0  0
 39 41  1  0  0  0
 42 43  1  0  0  0
 42 44  2  0  0  0
 44 45  1  0  0  0
 46 47  1  0  0  0
 46 48  2  0  0  0
 48 49  1  0  0  0
M  END
> <s_m_source_file>
ligprep_cdk8.smi

> <i_m_source_file_index>
22

> <i_lp_mmshare_version>
53161

> <i_f3d_flags>
0

> <s_epik_input>
W0NIM11uMW5bY0hdYyhbY0hdMSktYzJbY0hdW2NIXWMoW2NIXVtjSF0yKVtDSDJdYyhuW25IXTMpYyhjMzQpW2NIXWMoW2NIXVtjSF00KUMoPU8pTihbQ0gyXTUpW0NIMl1DNShGKUY=

> <s_epik_cmdline>
J2VwaWtfcHl0aG9uJywgJy1waHQnLCAnMC4wJywgJy1waCcsICc3LjQnLCAnLXRuJywgJzgnLCAnLW1hJywgJzUwMCcsICctaW1hZScsICc8aW5maWxlLm1hZT4nLCAnLW9tYWUnLCAnPG91dGZpbGUubWFlPic=

> <r_lp_tautomer_probability>
1

> <r_epik_Ionization_Penalty>
  0.0001

> <r_epik_Ionization_Penalty_Charging>
  0.0000

> <r_epik_Ionization_Penalty_Neutral>
  0.0001

> <r_epik_State_Penalty>
 -0.0000

> <r_epik_Charging_Adjusted_Penalty>
0

> <i_epik_Tot_Q>
0

> <i_epik_Tot_abs_Q>
0

> <s_lp_Force_Field>
S-OPLS

> <r_lp_Energy>
27.6462

> <b_lp_Chiralities_Consistent>
1

> <s_lp_Variant>
lig_34-1

> <s_i_glide_gridfile>
glide-grid_CDK8-5HNB

> <i_i_glide_lignum>
22

> <i_i_glide_rotatable_bonds>
5

> <r_i_docking_score>
-8.43387910930566

> <r_i_glide_ligand_efficiency>
-0.281129303643522

> <r_i_glide_ligand_efficiency_sa>
-0.87353410966697

> <r_i_glide_ligand_efficiency_ln>
-1.91626922810731

> <r_i_glide_gscore>
-8.43387910930566

> <r_i_glide_lipo>
-3.78604714800276

> <r_i_glide_hbond>
-0.578555207427926

> <r_i_glide_metal>
-0

> <r_i_glide_rewards>
-1.28784657230803

> <r_i_glide_evdw>
-46.2562141418457

> <r_i_glide_ecoul>
-5.6046085357666

> <r_i_glide_erotb>
0.414793513273915

> <r_i_glide_esite>
-0.0427217073835807

> <r_i_glide_emodel>
-74.0487210785281

> <r_i_glide_energy>
-51.8608226776123

> <r_i_glide_einternal>
2.17574214935303

> <i_i_glide_confnum>
4

> <i_i_glide_posenum>
3

> <r_i_glide_eff_state_penalty>
-0

> <r_i_glide_rmsd>
0.0919688552332455

> <s_glide_core_constrain_type>
snapped_core_restrain

$$$$
lig_45
                    3D
 Schrodinger Suite 2022-3.
 49 53  0  0  1  0            999 V2000
   -4.4853   14.4394   -5.8865 H   0  0  0  0  0  0
   -3.9557   13.6123   -6.3314 C   0  0  0  0  0  0
   -2.6469   13.6522   -6.3898 N   0  0  0  0  0  0
   -2.2646   12.4823   -6.9646 N   0  0  0  0  0  0
   -0.8509   12.2321   -7.1501 C   0  0  0  0  0  0
   -0.5877   12.3988   -8.1947 H   0  0  0  0  0  0
   -0.2575   12.8985   -6.5213 H   0  0  0  0  0  0
   -0.6256   11.2005   -6.8795 H   0  0  0  0  0  0
   -3.3338   11.6640   -7.3022 C   0  0  0  0  0  0
   -4.4759   12.4003   -6.8893 C   0  0  0  0  0  0
   -5.7448   11.8142   -7.1022 C   0  0  0  0  0  0
   -6.6253   12.3629   -6.8144 H   0  0  0  0  0  0
   -5.8712   10.5395   -7.6955 C   0  0  0  0  0  0
   -7.2467    9.9360   -7.9175 C   0  0  0  0  0  0
   -8.0023   10.5826   -7.4700 H   0  0  0  0  0  0
   -7.3008    8.9988   -7.3579 H   0  0  0  0  0  0
   -7.5694    9.7267   -9.3730 C   0  0  0  0  0  0
   -8.2454    8.6698   -9.7608 N   0  0  0  0  0  0
   -8.4073    8.7837  -11.1023 N   0  0  0  0  0  0
   -8.9210    8.0755  -11.6178 H   0  0  0  0  0  0
   -7.8454    9.9275  -11.6319 C   0  0  0  0  0  0
   -7.2541   10.5598  -10.5046 C   0  0  0  0  0  0
   -6.5482   11.7624  -10.7402 C   0  0  0  0  0  0
   -6.0731   12.2647   -9.9131 H   0  0  0  0  0  0
   -6.4249   12.3053  -12.0387 C   0  0  0  0  0  0
   -5.6353   13.5597  -12.2660 C   0  0  0  0  0  0
   -6.0435   14.4259  -13.0350 O   0  0  0  0  0  0
   -4.4133   13.6648  -11.6007 N   0  0  0  0  0  0
   -3.3704   12.6725  -11.8309 C   0  0  0  0  0  0
   -3.3716   12.2712  -12.8472 H   0  0  0  0  0  0
   -3.3094   11.8897  -11.0752 H   0  0  0  0  0  0
   -2.3627   13.8094  -11.6453 C   0  0  0  0  0  0
   -1.6140   13.8332  -12.4392 H   0  0  0  0  0  0
   -1.7940   13.8196  -10.3438 O   0  0  0  0  0  0
   -0.8257   14.8434  -10.1918 C   0  0  0  0  0  0
   -0.4643   14.8686   -9.1637 H   0  0  0  0  0  0
   -1.2343   15.8220  -10.4391 H   0  0  0  0  0  0
    0.0313   14.6682  -10.8392 H   0  0  0  0  0  0
   -3.5237   14.7969  -11.8334 C   0  0  0  0  0  0
   -3.6039   15.5769  -11.0754 H   0  0  0  0  0  0
   -3.5552   15.2020  -12.8452 H   0  0  0  0  0  0
   -7.0737   11.6806  -13.1236 C   0  0  0  0  0  0
   -7.0069   12.1093  -14.1138 H   0  0  0  0  0  0
   -7.7837   10.4823  -12.9217 C   0  0  0  0  0  0
   -8.2635    9.9981  -13.7577 H   0  0  0  0  0  0
   -4.7165    9.8338   -8.0947 C   0  0  0  0  0  0
   -4.8134    8.8636   -8.5599 H   0  0  0  0  0  0
   -3.4398   10.3960   -7.8987 C   0  0  0  0  0  0
   -2.5459    9.8633   -8.1940 H   0  0  0  0  0  0
  1  2  1  0  0  0
  2 10  1  0  0  0
  2  3  2  0  0  0
  3  4  1  0  0  0
  4  5  1  0  0  0
  4  9  1  0  0  0
  5  6  1  0  0  0
  5  7  1  0  0  0
  5  8  1  0  0  0
  9 48  1  0  0  0
  9 10  2  0  0  0
 10 11  1  0  0  0
 11 12  1  0  0  0
 11 13  2  0  0  0
 13 14  1  0  0  0
 13 46  1  0  0  0
 14 15  1  0  0  0
 14 16  1  0  0  0
 14 17  1  0  0  0
 17 22  1  0  0  0
 17 18  2  0  0  0
 18 19  1  0  0  0
 19 20  1  0  0  0
 19 21  1  0  0  0
 21 44  1  0  0  0
 21 22  2  0  0  0
 22 23  1  0  0  0
 23 24  1  0  0  0
 23 25  2  0  0  0
 25 26  1  0  0  0
 25 42  1  0  0  0
 26 27  2  0  0  0
 26 28  1  0  0  0
 28 39  1  0  0  0
 28 29  1  0  0  0
 29 30  1  0  0  0
 29 31  1  0  0  0
 29 32  1  0  0  0
 32 33  1  0  0  0
 32 34  1  0  0  0
 32 39  1  0  0  0
 34 35  1  0  0  0
 35 36  1  0  0  0
 35 37  1  0  0  0
 35 38  1  0  0  0
 39 40  1  0  0  0
 39 41  1  0  0  0
 42 43  1  0  0  0
 42 44  2  0  0  0
 44 45  1  0  0  0
 46 47  1  0  0  0
 46 48  2  0  0  0
 48 49  1  0  0  0
M  END
> <s_m_source_file>
ligprep_cdk8.smi

> <i_m_source_file_index>
33

> <i_lp_mmshare_version>
53161

> <i_f3d_flags>
0

> <s_epik_input>
W0NIM11uMW5bY0hdYyhjMTIpW2NIXWMoW2NIXVtjSF0yKVtDSDJdYyhuW25IXTMpYyhjMzQpW2NIXWMoW2NIXVtjSF00KUMoPU8pTjVbQ0gyXVtDSF0oW0NIMl01KU9bQ0gzXQ==

> <s_epik_cmdline>
J2VwaWtfcHl0aG9uJywgJy1waHQnLCAnMC4wJywgJy1waCcsICc3LjQnLCAnLXRuJywgJzgnLCAnLW1hJywgJzUwMCcsICctaW1hZScsICc8aW5maWxlLm1hZT4nLCAnLW9tYWUnLCAnPG91dGZpbGUubWFlPic=

> <r_lp_tautomer_probability>
1

> <r_epik_Ionization_Penalty>
  0.0000

> <r_epik_Ionization_Penalty_Charging>
  0.0000

> <r_epik_Ionization_Penalty_Neutral>
  0.0000

> <r_epik_State_Penalty>
 -0.0000

> <r_epik_Charging_Adjusted_Penalty>
0

> <i_epik_Tot_Q>
0

> <i_epik_Tot_abs_Q>
0

> <s_lp_Force_Field>
S-OPLS

> <r_lp_Energy>
30.1798

> <b_lp_Chiralities_Consistent>
1

> <s_lp_Variant>
lig_45-1

> <s_i_glide_gridfile>
glide-grid_CDK8-5HNB

> <i_i_glide_lignum>
33

> <i_i_glide_rotatable_bonds>
5

> <r_i_docking_score>
-7.8593503242882

> <r_i_glide_ligand_efficiency>
-0.280691083010293

> <r_i_glide_ligand_efficiency_sa>
-0.852343446226164

> <r_i_glide_ligand_efficiency_ln>
-1.81416881539841

> <r_i_glide_gscore>
-7.8593503242882

> <r_i_glide_lipo>
-3.85664553346711

> <r_i_glide_hbond>
-0.580846871617729

> <r_i_glide_metal>
-0

> <r_i_glide_rewards>
-0.647289844310426

> <r_i_glide_evdw>
-46.9279594421387

> <r_i_glide_ecoul>
-5.41676902770996

> <r_i_glide_erotb>
0.384345251370494

> <r_i_glide_esite>
0

> <r_i_glide_emodel>
-72.4736925546781

> <r_i_glide_energy>
-52.3447284698486

> <r_i_glide_einternal>
3.57766222953796

> <i_i_glide_confnum>
4

> <i_i_glide_posenum>
4

> <r_i_glide_eff_state_penalty>
-0

> <r_i_glide_rmsd>
0.0441786739170683

> <s_glide_core_constrain_type>
snapped_core_restrain

$$$$
