5PB
     RDKit          3D

 43 45  0  0  0  0  0  0  0  0999 V2000
   -4.7521    9.7463   -8.2002 C   0  0  0  0  0  0  0  0  0  0  0  0
   -5.9354   10.2773   -7.4026 C   0  0  0  0  0  0  0  0  0  0  0  0
   -5.6572   11.5237   -6.5661 C   0  0  0  0  0  0  0  0  0  0  0  0
   -7.3541   10.2461   -8.0249 C   0  0  0  0  0  0  0  0  0  0  0  0
   -7.5194    9.8493   -9.4647 C   0  0  0  0  0  0  0  0  0  0  0  0
   -8.2321    8.7649   -9.8564 N   0  0  0  0  0  0  0  0  0  0  0  0
   -8.3946    8.8285  -11.1761 N   0  0  0  0  0  0  0  0  0  0  0  0
   -7.8181    9.9561  -11.6357 C   0  0  0  0  0  0  0  0  0  0  0  0
   -7.2571   10.6280  -10.5873 C   0  0  0  0  0  0  0  0  0  0  0  0
   -6.5876   11.8377  -10.7708 C   0  0  0  0  0  0  0  0  0  0  0  0
   -6.4391   12.3365  -12.0875 C   0  0  0  0  0  0  0  0  0  0  0  0
   -7.0588   11.6542  -13.1694 C   0  0  0  0  0  0  0  0  0  0  0  0
   -7.7621   10.4489  -12.9463 C   0  0  0  0  0  0  0  0  0  0  0  0
   -5.6301   13.5589  -12.3180 C   0  0  0  0  0  0  0  0  0  0  0  0
   -4.3595   13.7585  -11.6628 N   0  0  0  0  0  0  0  0  0  0  0  0
   -3.9247   15.1288  -11.3607 C   0  0  0  0  0  0  0  0  0  0  0  0
   -2.5200   15.1354  -10.7608 C   0  0  0  0  0  0  0  0  0  0  0  0
   -1.6561   14.2737  -11.5695 N   0  0  0  0  0  0  0  0  0  0  0  0
   -2.0403   12.8519  -11.4807 C   0  0  0  0  0  0  0  0  0  0  0  0
   -3.5439   12.6211  -11.2098 C   0  0  0  0  0  0  0  0  0  0  0  0
   -6.0788   14.4594  -13.0762 O   0  0  0  0  0  0  0  0  0  0  0  0
   -3.8492    9.6636   -7.5575 H   0  0  0  0  0  0  0  0  0  0  0  0
   -4.9853    8.7417   -8.6136 H   0  0  0  0  0  0  0  0  0  0  0  0
   -4.5283   10.4337   -9.0408 H   0  0  0  0  0  0  0  0  0  0  0  0
   -6.0065    9.4971   -6.6086 H   0  0  0  0  0  0  0  0  0  0  0  0
   -6.4891   11.7102   -5.8529 H   0  0  0  0  0  0  0  0  0  0  0  0
   -5.5512   12.4042   -7.2346 H   0  0  0  0  0  0  0  0  0  0  0  0
   -4.7178   11.4032   -5.9849 H   0  0  0  0  0  0  0  0  0  0  0  0
   -7.8171   11.2522   -7.9250 H   0  0  0  0  0  0  0  0  0  0  0  0
   -8.0046    9.5789   -7.4151 H   0  0  0  0  0  0  0  0  0  0  0  0
   -8.9092    8.1179  -11.7420 H   0  0  0  0  0  0  0  0  0  0  0  0
   -6.1602   12.3563   -9.9220 H   0  0  0  0  0  0  0  0  0  0  0  0
   -6.9707   12.0376  -14.1781 H   0  0  0  0  0  0  0  0  0  0  0  0
   -8.2217    9.9115  -13.7655 H   0  0  0  0  0  0  0  0  0  0  0  0
   -3.9089   15.7255  -12.2989 H   0  0  0  0  0  0  0  0  0  0  0  0
   -4.6370   15.6010  -10.6503 H   0  0  0  0  0  0  0  0  0  0  0  0
   -2.1244   16.1743  -10.7697 H   0  0  0  0  0  0  0  0  0  0  0  0
   -2.5449   14.7844   -9.7041 H   0  0  0  0  0  0  0  0  0  0  0  0
   -0.6745   14.3737  -11.2195 H   0  0  0  0  0  0  0  0  0  0  0  0
   -1.7736   12.3664  -12.4437 H   0  0  0  0  0  0  0  0  0  0  0  0
   -1.4508   12.3450  -10.6837 H   0  0  0  0  0  0  0  0  0  0  0  0
   -3.6959   12.4916  -10.1169 H   0  0  0  0  0  0  0  0  0  0  0  0
   -3.8554   11.6796  -11.7122 H   0  0  0  0  0  0  0  0  0  0  0  0
  1  2  1  0
  2  3  1  0
  2  4  1  0
  4  5  1  0
  5  6  2  0
  6  7  1  0
  7  8  1  0
  8  9  2  0
  9 10  1  0
 10 11  2  0
 11 12  1  0
 12 13  2  0
 11 14  1  0
 14 15  1  0
 15 16  1  0
 16 17  1  0
 17 18  1  0
 18 19  1  0
 19 20  1  0
 14 21  2  0
  9  5  1  0
 13  8  1  0
 20 15  1  0
  1 22  1  0
  1 23  1  0
  1 24  1  0
  2 25  1  0
  3 26  1  0
  3 27  1  0
  3 28  1  0
  4 29  1  0
  4 30  1  0
  7 31  1  0
 10 32  1  0
 12 33  1  0
 13 34  1  0
 16 35  1  0
 16 36  1  0
 17 37  1  0
 17 38  1  0
 18 39  1  0
 19 40  1  0
 19 41  1  0
 20 42  1  0
 20 43  1  0
M  END
>  <EmbedRMS>  (1) 
0.1762932956650077

$$$$
5I0
     RDKit          3D

 41 43  0  0  0  0  0  0  0  0999 V2000
   -8.5337   12.0831   -7.7478 C   0  0  0  0  0  0  0  0  0  0  0  0
   -8.2940   10.6570   -7.2346 C   0  0  0  0  0  0  0  0  0  0  0  0
   -7.1974    9.9246   -8.0392 C   0  0  0  0  0  0  0  0  0  0  0  0
   -7.5563    9.7124   -9.4859 C   0  0  0  0  0  0  0  0  0  0  0  0
   -8.2589    8.6413   -9.9197 N   0  0  0  0  0  0  0  0  0  0  0  0
   -8.4268    8.7612  -11.2334 N   0  0  0  0  0  0  0  0  0  0  0  0
   -7.8413    9.8995  -11.6518 C   0  0  0  0  0  0  0  0  0  0  0  0
   -7.2748   10.5316  -10.5816 C   0  0  0  0  0  0  0  0  0  0  0  0
   -6.5843   11.7369  -10.7357 C   0  0  0  0  0  0  0  0  0  0  0  0
   -6.4422   12.2758  -12.0427 C   0  0  0  0  0  0  0  0  0  0  0  0
   -5.6376   13.4957  -12.2698 C   0  0  0  0  0  0  0  0  0  0  0  0
   -4.3588   13.6536  -11.6477 N   0  0  0  0  0  0  0  0  0  0  0  0
   -3.6018   12.5611  -11.0506 C   0  0  0  0  0  0  0  0  0  0  0  0
   -2.1642   13.0428  -11.0397 C   0  0  0  0  0  0  0  0  0  0  0  0
   -2.2910   14.5574  -11.0060 C   0  0  0  0  0  0  0  0  0  0  0  0
   -2.4438   14.9650   -9.6974 F   0  0  0  0  0  0  0  0  0  0  0  0
   -3.5630   14.8600  -11.7814 C   0  0  0  0  0  0  0  0  0  0  0  0
   -1.1886   15.1748  -11.5567 F   0  0  0  0  0  0  0  0  0  0  0  0
   -6.0657   14.3932  -13.0447 O   0  0  0  0  0  0  0  0  0  0  0  0
   -7.0604   11.6253  -13.1395 C   0  0  0  0  0  0  0  0  0  0  0  0
   -7.7733   10.4245  -12.9481 C   0  0  0  0  0  0  0  0  0  0  0  0
   -9.6078    9.8648   -7.1930 C   0  0  0  0  0  0  0  0  0  0  0  0
   -9.2431   12.6134   -7.0774 H   0  0  0  0  0  0  0  0  0  0  0  0
   -7.5801   12.6523   -7.7589 H   0  0  0  0  0  0  0  0  0  0  0  0
   -8.9612   12.0710   -8.7728 H   0  0  0  0  0  0  0  0  0  0  0  0
   -7.9267   10.7413   -6.1877 H   0  0  0  0  0  0  0  0  0  0  0  0
   -6.2491   10.5012   -7.9801 H   0  0  0  0  0  0  0  0  0  0  0  0
   -6.9987    8.9360   -7.5713 H   0  0  0  0  0  0  0  0  0  0  0  0
   -8.9378    8.0711  -11.8272 H   0  0  0  0  0  0  0  0  0  0  0  0
   -6.1807   12.2422   -9.8701 H   0  0  0  0  0  0  0  0  0  0  0  0
   -3.6919   11.6329  -11.6563 H   0  0  0  0  0  0  0  0  0  0  0  0
   -3.9397   12.3826  -10.0089 H   0  0  0  0  0  0  0  0  0  0  0  0
   -1.6047   12.6523  -10.1619 H   0  0  0  0  0  0  0  0  0  0  0  0
   -1.6545   12.7271  -11.9772 H   0  0  0  0  0  0  0  0  0  0  0  0
   -4.0996   15.7332  -11.3511 H   0  0  0  0  0  0  0  0  0  0  0  0
   -3.3348   15.0418  -12.8546 H   0  0  0  0  0  0  0  0  0  0  0  0
   -6.9695   12.0316  -14.1393 H   0  0  0  0  0  0  0  0  0  0  0  0
   -8.2343    9.9119  -13.7824 H   0  0  0  0  0  0  0  0  0  0  0  0
   -9.4216    8.8296   -6.8359 H   0  0  0  0  0  0  0  0  0  0  0  0
  -10.3205   10.3495   -6.4920 H   0  0  0  0  0  0  0  0  0  0  0  0
  -10.0790    9.8218   -8.1978 H   0  0  0  0  0  0  0  0  0  0  0  0
  1  2  1  0
  2  3  1  0
  3  4  1  0
  4  5  2  0
  5  6  1  0
  6  7  1  0
  7  8  2  0
  8  9  1  0
  9 10  2  0
 10 11  1  0
 11 12  1  0
 12 13  1  0
 13 14  1  0
 14 15  1  0
 15 16  1  0
 15 17  1  0
 15 18  1  0
 11 19  2  0
 10 20  1  0
 20 21  2  0
  2 22  1  0
  8  4  1  0
 21  7  1  0
 17 12  1  0
  1 23  1  0
  1 24  1  0
  1 25  1  0
  2 26  1  0
  3 27  1  0
  3 28  1  0
  6 29  1  0
  9 30  1  0
 13 31  1  0
 13 32  1  0
 14 33  1  0
 14 34  1  0
 17 35  1  0
 17 36  1  0
 20 37  1  0
 21 38  1  0
 22 39  1  0
 22 40  1  0
 22 41  1  0
M  END
>  <EmbedRMS>  (2) 
0.053143368262120676

$$$$
5I1
     RDKit          3D

 50 54  0  0  0  0  0  0  0  0999 V2000
   -0.8601   12.1667   -7.1621 C   0  0  0  0  0  0  0  0  0  0  0  0
   -2.2696   12.4756   -6.9612 N   0  0  0  0  0  0  0  0  0  0  0  0
   -2.6850   13.6081   -6.4015 N   0  0  0  0  0  0  0  0  0  0  0  0
   -4.0362   13.5762   -6.3457 C   0  0  0  0  0  0  0  0  0  0  0  0
   -4.4728   12.3783   -6.8886 C   0  0  0  0  0  0  0  0  0  0  0  0
   -3.3440   11.7044   -7.2575 C   0  0  0  0  0  0  0  0  0  0  0  0
   -3.4124   10.4360   -7.8556 C   0  0  0  0  0  0  0  0  0  0  0  0
   -4.6907    9.8737   -8.0756 C   0  0  0  0  0  0  0  0  0  0  0  0
   -5.8660   10.5793   -7.7031 C   0  0  0  0  0  0  0  0  0  0  0  0
   -7.2327    9.9812   -7.9467 C   0  0  0  0  0  0  0  0  0  0  0  0
   -7.5406    9.7522   -9.4065 C   0  0  0  0  0  0  0  0  0  0  0  0
   -8.2485    8.6815   -9.8381 N   0  0  0  0  0  0  0  0  0  0  0  0
   -8.4215    8.7944  -11.1521 N   0  0  0  0  0  0  0  0  0  0  0  0
   -7.8451    9.9347  -11.5758 C   0  0  0  0  0  0  0  0  0  0  0  0
   -7.2778   10.5749  -10.5072 C   0  0  0  0  0  0  0  0  0  0  0  0
   -6.5791   11.7761  -10.6737 C   0  0  0  0  0  0  0  0  0  0  0  0
   -6.4580   12.3139  -11.9793 C   0  0  0  0  0  0  0  0  0  0  0  0
   -5.6533   13.5322  -12.2008 C   0  0  0  0  0  0  0  0  0  0  0  0
   -4.3804   13.6807  -11.5634 N   0  0  0  0  0  0  0  0  0  0  0  0
   -3.9596   15.0170  -11.1312 C   0  0  0  0  0  0  0  0  0  0  0  0
   -2.8883   14.9048  -10.0464 C   0  0  0  0  0  0  0  0  0  0  0  0
   -1.7895   14.0489  -10.5079 N   0  0  0  0  0  0  0  0  0  0  0  0
   -2.2768   12.6872  -10.7572 C   0  0  0  0  0  0  0  0  0  0  0  0
   -3.3408   12.6866  -11.8547 C   0  0  0  0  0  0  0  0  0  0  0  0
   -6.0772   14.4388  -12.9662 O   0  0  0  0  0  0  0  0  0  0  0  0
   -7.0827   11.6618  -13.0717 C   0  0  0  0  0  0  0  0  0  0  0  0
   -7.7837   10.4546  -12.8752 C   0  0  0  0  0  0  0  0  0  0  0  0
   -5.7499   11.8505   -7.0874 C   0  0  0  0  0  0  0  0  0  0  0  0
   -0.5391   11.4020   -6.4246 H   0  0  0  0  0  0  0  0  0  0  0  0
   -0.2435   13.0811   -7.0309 H   0  0  0  0  0  0  0  0  0  0  0  0
   -0.7007   11.7758   -8.1888 H   0  0  0  0  0  0  0  0  0  0  0  0
   -4.6539   14.3688   -5.9454 H   0  0  0  0  0  0  0  0  0  0  0  0
   -2.5160    9.9058   -8.1488 H   0  0  0  0  0  0  0  0  0  0  0  0
   -4.7675    8.8992   -8.5413 H   0  0  0  0  0  0  0  0  0  0  0  0
   -7.2899    9.0113   -7.4075 H   0  0  0  0  0  0  0  0  0  0  0  0
   -8.0277   10.6336   -7.5261 H   0  0  0  0  0  0  0  0  0  0  0  0
   -8.9334    8.1006  -11.7410 H   0  0  0  0  0  0  0  0  0  0  0  0
   -6.1178   12.2727   -9.8321 H   0  0  0  0  0  0  0  0  0  0  0  0
   -4.8276   15.5796  -10.7224 H   0  0  0  0  0  0  0  0  0  0  0  0
   -3.5516   15.5753  -12.0019 H   0  0  0  0  0  0  0  0  0  0  0  0
   -3.3378   14.4967   -9.1136 H   0  0  0  0  0  0  0  0  0  0  0  0
   -2.4941   15.9191   -9.8213 H   0  0  0  0  0  0  0  0  0  0  0  0
   -1.0828   13.9973   -9.7375 H   0  0  0  0  0  0  0  0  0  0  0  0
   -1.4274   12.0446  -11.0740 H   0  0  0  0  0  0  0  0  0  0  0  0
   -2.7059   12.2534   -9.8328 H   0  0  0  0  0  0  0  0  0  0  0  0
   -3.7796   11.6675  -11.9251 H   0  0  0  0  0  0  0  0  0  0  0  0
   -2.8658   12.9307  -12.8297 H   0  0  0  0  0  0  0  0  0  0  0  0
   -7.0002   12.0689  -14.0718 H   0  0  0  0  0  0  0  0  0  0  0  0
   -8.2450    9.9369  -13.7060 H   0  0  0  0  0  0  0  0  0  0  0  0
   -6.6245   12.4147   -6.7888 H   0  0  0  0  0  0  0  0  0  0  0  0
  1  2  1  0
  2  3  1  0
  3  4  2  0
  4  5  1  0
  5  6  2  0
  6  7  1  0
  7  8  2  0
  8  9  1  0
  9 10  1  0
 10 11  1  0
 11 12  2  0
 12 13  1  0
 13 14  1  0
 14 15  2  0
 15 16  1  0
 16 17  2  0
 17 18  1  0
 18 19  1  0
 19 20  1  0
 20 21  1  0
 21 22  1  0
 22 23  1  0
 23 24  1  0
 18 25  2  0
 17 26  1  0
 26 27  2  0
  9 28  2  0
  6  2  1  0
 28  5  1  0
 15 11  1  0
 27 14  1  0
 24 19  1  0
  1 29  1  0
  1 30  1  0
  1 31  1  0
  4 32  1  0
  7 33  1  0
  8 34  1  0
 10 35  1  0
 10 36  1  0
 13 37  1  0
 16 38  1  0
 20 39  1  0
 20 40  1  0
 21 41  1  0
 21 42  1  0
 22 43  1  0
 23 44  1  0
 23 45  1  0
 24 46  1  0
 24 47  1  0
 26 48  1  0
 27 49  1  0
 28 50  1  0
M  END
>  <EmbedRMS>  (3) 
0.051448475128165076

$$$$
5PA
     RDKit          3D

 48 52  0  0  0  0  0  0  0  0999 V2000
   -0.8676   12.1508   -7.1482 C   0  0  0  0  0  0  0  0  0  0  0  0
   -2.2765   12.4623   -6.9481 N   0  0  0  0  0  0  0  0  0  0  0  0
   -2.6880   13.5841   -6.3644 N   0  0  0  0  0  0  0  0  0  0  0  0
   -4.0394   13.5564   -6.3094 C   0  0  0  0  0  0  0  0  0  0  0  0
   -4.4797   12.3683   -6.8722 C   0  0  0  0  0  0  0  0  0  0  0  0
   -3.3521   11.6963   -7.2495 C   0  0  0  0  0  0  0  0  0  0  0  0
   -3.4211   10.4280   -7.8469 C   0  0  0  0  0  0  0  0  0  0  0  0
   -4.6986    9.8655   -8.0655 C   0  0  0  0  0  0  0  0  0  0  0  0
   -5.8731   10.5747   -7.6999 C   0  0  0  0  0  0  0  0  0  0  0  0
   -7.2390    9.9798   -7.9533 C   0  0  0  0  0  0  0  0  0  0  0  0
   -7.5437    9.7660   -9.4168 C   0  0  0  0  0  0  0  0  0  0  0  0
   -8.2465    8.6970   -9.8601 N   0  0  0  0  0  0  0  0  0  0  0  0
   -8.4045    8.8136  -11.1756 N   0  0  0  0  0  0  0  0  0  0  0  0
   -7.8214    9.9531  -11.5901 C   0  0  0  0  0  0  0  0  0  0  0  0
   -7.2721   10.5930  -10.5129 C   0  0  0  0  0  0  0  0  0  0  0  0
   -6.5965   11.8062  -10.6671 C   0  0  0  0  0  0  0  0  0  0  0  0
   -6.4378   12.3344  -11.9748 C   0  0  0  0  0  0  0  0  0  0  0  0
   -7.0356   11.6766  -13.0770 C   0  0  0  0  0  0  0  0  0  0  0  0
   -7.7419   10.4723  -12.8887 C   0  0  0  0  0  0  0  0  0  0  0  0
   -5.6084   13.5360  -12.1947 C   0  0  0  0  0  0  0  0  0  0  0  0
   -4.3219   13.6447  -11.5811 N   0  0  0  0  0  0  0  0  0  0  0  0
   -3.5876   12.5112  -11.0371 C   0  0  0  0  0  0  0  0  0  0  0  0
   -2.1461   12.9731  -10.9747 C   0  0  0  0  0  0  0  0  0  0  0  0
   -2.2553   14.4857  -10.8639 C   0  0  0  0  0  0  0  0  0  0  0  0
   -2.4273   14.8303   -9.5392 F   0  0  0  0  0  0  0  0  0  0  0  0
   -3.5086   14.8438  -11.6463 C   0  0  0  0  0  0  0  0  0  0  0  0
   -1.1360   15.1151  -11.3635 F   0  0  0  0  0  0  0  0  0  0  0  0
   -6.0190   14.4562  -12.9514 O   0  0  0  0  0  0  0  0  0  0  0  0
   -5.7573   11.8443   -7.0796 C   0  0  0  0  0  0  0  0  0  0  0  0
   -0.7298   11.5520   -8.0719 H   0  0  0  0  0  0  0  0  0  0  0  0
   -0.4898   11.5726   -6.2796 H   0  0  0  0  0  0  0  0  0  0  0  0
   -0.2812   13.0889   -7.2456 H   0  0  0  0  0  0  0  0  0  0  0  0
   -4.6545   14.3429   -5.8933 H   0  0  0  0  0  0  0  0  0  0  0  0
   -2.5267    9.8942   -8.1388 H   0  0  0  0  0  0  0  0  0  0  0  0
   -4.7756    8.8910   -8.5310 H   0  0  0  0  0  0  0  0  0  0  0  0
   -7.2986    9.0047   -7.4239 H   0  0  0  0  0  0  0  0  0  0  0  0
   -8.0345   10.6286   -7.5282 H   0  0  0  0  0  0  0  0  0  0  0  0
   -8.9080    8.1205  -11.7723 H   0  0  0  0  0  0  0  0  0  0  0  0
   -6.2055   12.3287   -9.8072 H   0  0  0  0  0  0  0  0  0  0  0  0
   -6.9283   12.0764  -14.0777 H   0  0  0  0  0  0  0  0  0  0  0  0
   -8.1877    9.9516  -13.7261 H   0  0  0  0  0  0  0  0  0  0  0  0
   -3.6802   11.6201  -11.6956 H   0  0  0  0  0  0  0  0  0  0  0  0
   -3.9475   12.2791  -10.0158 H   0  0  0  0  0  0  0  0  0  0  0  0
   -1.6089   12.5308  -10.1100 H   0  0  0  0  0  0  0  0  0  0  0  0
   -1.6224   12.6999  -11.9176 H   0  0  0  0  0  0  0  0  0  0  0  0
   -4.0402   15.7036  -11.1838 H   0  0  0  0  0  0  0  0  0  0  0  0
   -3.2605   15.0714  -12.7062 H   0  0  0  0  0  0  0  0  0  0  0  0
   -6.6321   12.4074   -6.7794 H   0  0  0  0  0  0  0  0  0  0  0  0
  1  2  1  0
  2  3  1  0
  3  4  2  0
  4  5  1  0
  5  6  2  0
  6  7  1  0
  7  8  2  0
  8  9  1  0
  9 10  1  0
 10 11  1  0
 11 12  2  0
 12 13  1  0
 13 14  1  0
 14 15  2  0
 15 16  1  0
 16 17  2  0
 17 18  1  0
 18 19  2  0
 17 20  1  0
 20 21  1  0
 21 22  1  0
 22 23  1  0
 23 24  1  0
 24 25  1  0
 24 26  1  0
 24 27  1  0
 20 28  2  0
  9 29  2  0
  6  2  1  0
 29  5  1  0
 15 11  1  0
 19 14  1  0
 26 21  1  0
  1 30  1  0
  1 31  1  0
  1 32  1  0
  4 33  1  0
  7 34  1  0
  8 35  1  0
 10 36  1  0
 10 37  1  0
 13 38  1  0
 16 39  1  0
 18 40  1  0
 19 41  1  0
 22 42  1  0
 22 43  1  0
 23 44  1  0
 23 45  1  0
 26 46  1  0
 26 47  1  0
 29 48  1  0
M  END
>  <EmbedRMS>  (4) 
0.05005186570001316

$$$$
