3PB
     RDKit          3D

 59 63  0  0  0  0  0  0  0  0999 V2000
   -3.7606   12.9039  -10.7440 O   0  0  0  0  0  0  0  0  0  0  0  0
   -4.3118   13.6841  -11.5640 C   0  0  0  0  0  0  0  0  0  0  0  0
   -3.7154   14.9627  -11.9966 C   0  0  0  0  0  0  0  0  0  0  0  0
   -4.6929   15.4748  -13.0635 C   0  0  0  0  0  0  0  0  0  0  0  0
   -5.8461   14.4583  -13.1552 C   0  0  0  0  0  0  0  0  0  0  0  0
   -5.5433   13.4055  -12.1989 N   0  0  0  0  0  0  0  0  0  0  0  0
   -6.3604   12.2432  -11.9748 C   0  0  0  0  0  0  0  0  0  0  0  0
   -7.0285   11.6226  -13.0619 C   0  0  0  0  0  0  0  0  0  0  0  0
   -7.7761   10.4472  -12.8651 C   0  0  0  0  0  0  0  0  0  0  0  0
   -6.4955   11.7027  -10.6714 C   0  0  0  0  0  0  0  0  0  0  0  0
   -7.2286   10.5231  -10.5068 C   0  0  0  0  0  0  0  0  0  0  0  0
   -7.8356    9.9171  -11.5723 C   0  0  0  0  0  0  0  0  0  0  0  0
   -8.4466    8.7940  -11.1541 N   0  0  0  0  0  0  0  0  0  0  0  0
   -8.2568    8.6581   -9.8451 N   0  0  0  0  0  0  0  0  0  0  0  0
   -7.5044    9.6969   -9.4118 C   0  0  0  0  0  0  0  0  0  0  0  0
   -7.1759    9.8952   -7.9534 C   0  0  0  0  0  0  0  0  0  0  0  0
   -5.8251   10.5259   -7.7174 C   0  0  0  0  0  0  0  0  0  0  0  0
   -5.7343   11.8152   -7.1650 C   0  0  0  0  0  0  0  0  0  0  0  0
   -4.4853   12.4070   -6.9461 C   0  0  0  0  0  0  0  0  0  0  0  0
   -3.3058   11.7057   -7.2389 C   0  0  0  0  0  0  0  0  0  0  0  0
   -1.9924   12.3139   -6.9482 C   0  0  0  0  0  0  0  0  0  0  0  0
   -0.9742   11.7808   -6.1862 C   0  0  0  0  0  0  0  0  0  0  0  0
    0.0111   12.7014   -6.1161 N   0  0  0  0  0  0  0  0  0  0  0  0
    1.2554   12.5841   -5.3585 C   0  0  0  0  0  0  0  0  0  0  0  0
    1.0519   12.9260   -3.8637 C   0  0  0  0  0  0  0  0  0  0  0  0
    2.3919   12.7452   -3.1247 C   0  0  0  0  0  0  0  0  0  0  0  0
    0.0976   12.0413   -3.3253 O   0  0  0  0  0  0  0  0  0  0  0  0
    0.5665   14.3818   -3.7051 C   0  0  0  0  0  0  0  0  0  0  0  0
   -0.3233   13.7856   -6.8003 N   0  0  0  0  0  0  0  0  0  0  0  0
   -1.5490   13.5744   -7.3168 C   0  0  0  0  0  0  0  0  0  0  0  0
   -3.3929   10.4132   -7.7816 C   0  0  0  0  0  0  0  0  0  0  0  0
   -4.6441    9.8318   -8.0313 C   0  0  0  0  0  0  0  0  0  0  0  0
   -3.6557   15.6653  -11.1379 H   0  0  0  0  0  0  0  0  0  0  0  0
   -2.7061   14.7906  -12.4284 H   0  0  0  0  0  0  0  0  0  0  0  0
   -4.1772   15.5620  -14.0450 H   0  0  0  0  0  0  0  0  0  0  0  0
   -5.0839   16.4758  -12.7778 H   0  0  0  0  0  0  0  0  0  0  0  0
   -6.8146   14.9373  -12.8946 H   0  0  0  0  0  0  0  0  0  0  0  0
   -5.8960   14.0455  -14.1848 H   0  0  0  0  0  0  0  0  0  0  0  0
   -6.9461   12.0202  -14.0635 H   0  0  0  0  0  0  0  0  0  0  0  0
   -8.2692    9.9552  -13.6935 H   0  0  0  0  0  0  0  0  0  0  0  0
   -6.0344   12.1899   -9.8280 H   0  0  0  0  0  0  0  0  0  0  0  0
   -8.9921    8.1266  -11.7431 H   0  0  0  0  0  0  0  0  0  0  0  0
   -7.9817   10.5108   -7.4993 H   0  0  0  0  0  0  0  0  0  0  0  0
   -7.1969    8.9092   -7.4410 H   0  0  0  0  0  0  0  0  0  0  0  0
   -6.6299   12.3710   -6.9170 H   0  0  0  0  0  0  0  0  0  0  0  0
   -4.4381   13.4033   -6.5237 H   0  0  0  0  0  0  0  0  0  0  0  0
   -0.9639   10.8157   -5.6957 H   0  0  0  0  0  0  0  0  0  0  0  0
    2.0210   13.2580   -5.8036 H   0  0  0  0  0  0  0  0  0  0  0  0
    1.6395   11.5444   -5.4559 H   0  0  0  0  0  0  0  0  0  0  0  0
    2.2799   12.9874   -2.0460 H   0  0  0  0  0  0  0  0  0  0  0  0
    3.1706   13.4120   -3.5542 H   0  0  0  0  0  0  0  0  0  0  0  0
    2.7395   11.6930   -3.2077 H   0  0  0  0  0  0  0  0  0  0  0  0
   -0.0304   12.2728   -2.3677 H   0  0  0  0  0  0  0  0  0  0  0  0
    0.5084   14.6585   -2.6305 H   0  0  0  0  0  0  0  0  0  0  0  0
   -0.4477   14.5048   -4.1403 H   0  0  0  0  0  0  0  0  0  0  0  0
    1.2624   15.0852   -4.2110 H   0  0  0  0  0  0  0  0  0  0  0  0
   -2.0911   14.2952   -7.9146 H   0  0  0  0  0  0  0  0  0  0  0  0
   -2.4929    9.8578   -8.0152 H   0  0  0  0  0  0  0  0  0  0  0  0
   -4.6935    8.8367   -8.4556 H   0  0  0  0  0  0  0  0  0  0  0  0
  1  2  2  0
  2  3  1  0
  3  4  1  0
  4  5  1  0
  2  6  1  0
  6  7  1  0
  7  8  2  0
  8  9  1  0
  7 10  1  0
 10 11  2  0
 11 12  1  0
 12 13  1  0
 13 14  1  0
 14 15  2  0
 15 16  1  0
 16 17  1  0
 17 18  2  0
 18 19  1  0
 19 20  2  0
 20 21  1  0
 21 22  2  0
 22 23  1  0
 23 24  1  0
 24 25  1  0
 25 26  1  0
 25 27  1  0
 25 28  1  0
 23 29  1  0
 29 30  2  0
 20 31  1  0
 31 32  2  0
  6  5  1  0
 12  9  2  0
 15 11  1  0
 32 17  1  0
 30 21  1  0
  3 33  1  0
  3 34  1  0
  4 35  1  0
  4 36  1  0
  5 37  1  0
  5 38  1  0
  8 39  1  0
  9 40  1  0
 10 41  1  0
 13 42  1  0
 16 43  1  0
 16 44  1  0
 18 45  1  0
 19 46  1  0
 22 47  1  0
 24 48  1  0
 24 49  1  0
 26 50  1  0
 26 51  1  0
 26 52  1  0
 27 53  1  0
 28 54  1  0
 28 55  1  0
 28 56  1  0
 30 57  1  0
 31 58  1  0
 32 59  1  0
M  END
>  <EmbedRMS>  (1) 
0.037363628172771675

$$$$
3I0
     RDKit          3D

 39 42  0  0  0  0  0  0  0  0999 V2000
   -3.7608   12.9038  -10.7448 O   0  0  0  0  0  0  0  0  0  0  0  0
   -4.3121   13.6841  -11.5645 C   0  0  0  0  0  0  0  0  0  0  0  0
   -3.7156   14.9626  -11.9974 C   0  0  0  0  0  0  0  0  0  0  0  0
   -4.6934   15.4748  -13.0640 C   0  0  0  0  0  0  0  0  0  0  0  0
   -5.8466   14.4583  -13.1554 C   0  0  0  0  0  0  0  0  0  0  0  0
   -5.5439   13.4056  -12.1988 N   0  0  0  0  0  0  0  0  0  0  0  0
   -6.3608   12.2431  -11.9746 C   0  0  0  0  0  0  0  0  0  0  0  0
   -7.0285   11.6225  -13.0618 C   0  0  0  0  0  0  0  0  0  0  0  0
   -7.7759   10.4470  -12.8653 C   0  0  0  0  0  0  0  0  0  0  0  0
   -7.8357    9.9169  -11.5726 C   0  0  0  0  0  0  0  0  0  0  0  0
   -8.4467    8.7936  -11.1549 N   0  0  0  0  0  0  0  0  0  0  0  0
   -8.2581    8.6577   -9.8458 N   0  0  0  0  0  0  0  0  0  0  0  0
   -7.5064    9.6966   -9.4119 C   0  0  0  0  0  0  0  0  0  0  0  0
   -7.2294   10.5228  -10.5067 C   0  0  0  0  0  0  0  0  0  0  0  0
   -6.4962   11.7026  -10.6710 C   0  0  0  0  0  0  0  0  0  0  0  0
   -7.1814    9.8954   -7.9530 C   0  0  0  0  0  0  0  0  0  0  0  0
   -5.8308   10.5235   -7.7157 C   0  0  0  0  0  0  0  0  0  0  0  0
   -5.7377   11.8099   -7.1539 C   0  0  0  0  0  0  0  0  0  0  0  0
   -4.4866   12.3960   -6.9334 C   0  0  0  0  0  0  0  0  0  0  0  0
   -3.3183   11.6984   -7.2537 C   0  0  0  0  0  0  0  0  0  0  0  0
   -3.4013   10.4161   -7.8061 C   0  0  0  0  0  0  0  0  0  0  0  0
   -4.6516    9.8302   -8.0406 C   0  0  0  0  0  0  0  0  0  0  0  0
   -3.6557   15.6655  -11.1390 H   0  0  0  0  0  0  0  0  0  0  0  0
   -2.7066   14.7904  -12.4297 H   0  0  0  0  0  0  0  0  0  0  0  0
   -5.0844   16.4758  -12.7781 H   0  0  0  0  0  0  0  0  0  0  0  0
   -4.1780   15.5620  -14.0456 H   0  0  0  0  0  0  0  0  0  0  0  0
   -5.8965   14.0452  -14.1849 H   0  0  0  0  0  0  0  0  0  0  0  0
   -6.8151   14.9373  -12.8949 H   0  0  0  0  0  0  0  0  0  0  0  0
   -6.9460   12.0202  -14.0634 H   0  0  0  0  0  0  0  0  0  0  0  0
   -8.2687    9.9550  -13.6939 H   0  0  0  0  0  0  0  0  0  0  0  0
   -8.9918    8.1261  -11.7443 H   0  0  0  0  0  0  0  0  0  0  0  0
   -6.0354   12.1895   -9.8270 H   0  0  0  0  0  0  0  0  0  0  0  0
   -7.9871   10.5131   -7.5015 H   0  0  0  0  0  0  0  0  0  0  0  0
   -7.2050    8.9100   -7.4397 H   0  0  0  0  0  0  0  0  0  0  0  0
   -6.6316   12.3643   -6.8970 H   0  0  0  0  0  0  0  0  0  0  0  0
   -4.4229   13.3894   -6.5085 H   0  0  0  0  0  0  0  0  0  0  0  0
   -2.3512   12.1514   -7.0782 H   0  0  0  0  0  0  0  0  0  0  0  0
   -2.4970    9.8771   -8.0571 H   0  0  0  0  0  0  0  0  0  0  0  0
   -4.7029    8.8383   -8.4721 H   0  0  0  0  0  0  0  0  0  0  0  0
  1  2  2  0
  2  3  1  0
  3  4  1  0
  4  5  1  0
  5  6  1  0
  6  7  1  0
  7  8  2  0
  8  9  1  0
  9 10  2  0
 10 11  1  0
 11 12  1  0
 12 13  2  0
 13 14  1  0
 14 15  2  0
 13 16  1  0
 16 17  1  0
 17 18  2  0
 18 19  1  0
 19 20  2  0
 20 21  1  0
 21 22  2  0
  6  2  1  0
 15  7  1  0
 14 10  1  0
 22 17  1  0
  3 23  1  0
  3 24  1  0
  4 25  1  0
  4 26  1  0
  5 27  1  0
  5 28  1  0
  8 29  1  0
  9 30  1  0
 11 31  1  0
 15 32  1  0
 16 33  1  0
 16 34  1  0
 18 35  1  0
 19 36  1  0
 20 37  1  0
 21 38  1  0
 22 39  1  0
M  END
>  <EmbedRMS>  (2) 
0.03757630027996949

$$$$
3I1
     RDKit          3D

 55 58  0  0  0  0  0  0  0  0999 V2000
   -4.5307   13.7811   -6.3398 C   0  0  0  0  0  0  0  0  0  0  0  0
   -4.5973   12.3897   -6.9149 C   0  0  0  0  0  0  0  0  0  0  0  0
   -5.8510   11.8096   -7.1556 C   0  0  0  0  0  0  0  0  0  0  0  0
   -5.9528   10.5305   -7.7227 C   0  0  0  0  0  0  0  0  0  0  0  0
   -7.3063    9.9409   -8.0083 C   0  0  0  0  0  0  0  0  0  0  0  0
   -7.5545    9.7280   -9.4782 C   0  0  0  0  0  0  0  0  0  0  0  0
   -8.2648    8.6711   -9.9334 N   0  0  0  0  0  0  0  0  0  0  0  0
   -8.4038    8.7936  -11.2492 N   0  0  0  0  0  0  0  0  0  0  0  0
   -7.8026    9.9274  -11.6518 C   0  0  0  0  0  0  0  0  0  0  0  0
   -7.7246   10.4588  -12.9442 C   0  0  0  0  0  0  0  0  0  0  0  0
   -7.0160   11.6627  -13.1224 C   0  0  0  0  0  0  0  0  0  0  0  0
   -6.4006   12.3019  -12.0171 C   0  0  0  0  0  0  0  0  0  0  0  0
   -6.5325   11.7470  -10.7179 C   0  0  0  0  0  0  0  0  0  0  0  0
   -7.2449   10.5517  -10.5691 C   0  0  0  0  0  0  0  0  0  0  0  0
   -5.6145   13.5345  -12.2132 C   0  0  0  0  0  0  0  0  0  0  0  0
   -4.4095   13.7306  -11.4813 N   0  0  0  0  0  0  0  0  0  0  0  0
   -5.9945   14.4138  -13.0320 O   0  0  0  0  0  0  0  0  0  0  0  0
   -4.7854    9.8166   -8.0311 C   0  0  0  0  0  0  0  0  0  0  0  0
   -3.5306   10.3811   -7.7863 C   0  0  0  0  0  0  0  0  0  0  0  0
   -3.4265   11.6684   -7.2380 C   0  0  0  0  0  0  0  0  0  0  0  0
   -2.0970   12.2658   -7.0495 C   0  0  0  0  0  0  0  0  0  0  0  0
   -1.1090   11.8827   -6.1664 C   0  0  0  0  0  0  0  0  0  0  0  0
   -0.0703   12.7317   -6.3324 N   0  0  0  0  0  0  0  0  0  0  0  0
   -0.3377   13.5913   -7.3047 N   0  0  0  0  0  0  0  0  0  0  0  0
   -1.5818   13.3426   -7.7428 C   0  0  0  0  0  0  0  0  0  0  0  0
    1.2480   12.6361   -5.7055 C   0  0  0  0  0  0  0  0  0  0  0  0
    1.6538   13.8872   -4.8466 C   0  0  0  0  0  0  0  0  0  0  0  0
    0.9262   15.1998   -5.2135 C   0  0  0  0  0  0  0  0  0  0  0  0
    1.4089   13.6156   -3.4897 O   0  0  0  0  0  0  0  0  0  0  0  0
    3.1679   14.1210   -5.0061 C   0  0  0  0  0  0  0  0  0  0  0  0
   -3.7702   13.8296   -5.5320 H   0  0  0  0  0  0  0  0  0  0  0  0
   -4.2634   14.5015   -7.1407 H   0  0  0  0  0  0  0  0  0  0  0  0
   -5.5045   14.0868   -5.9014 H   0  0  0  0  0  0  0  0  0  0  0  0
   -6.7520   12.3648   -6.9227 H   0  0  0  0  0  0  0  0  0  0  0  0
   -7.3829    8.9658   -7.4805 H   0  0  0  0  0  0  0  0  0  0  0  0
   -8.1166   10.5890   -7.6108 H   0  0  0  0  0  0  0  0  0  0  0  0
   -8.9158    8.1132  -11.8534 H   0  0  0  0  0  0  0  0  0  0  0  0
   -8.1838    9.9537  -13.7841 H   0  0  0  0  0  0  0  0  0  0  0  0
   -6.9275   12.0817  -14.1170 H   0  0  0  0  0  0  0  0  0  0  0  0
   -6.0980   12.2398   -9.8611 H   0  0  0  0  0  0  0  0  0  0  0  0
   -4.0292   12.9895  -10.8514 H   0  0  0  0  0  0  0  0  0  0  0  0
   -3.8644   14.6135  -11.5970 H   0  0  0  0  0  0  0  0  0  0  0  0
   -4.8487    8.8277   -8.4682 H   0  0  0  0  0  0  0  0  0  0  0  0
   -2.6386    9.8220   -8.0416 H   0  0  0  0  0  0  0  0  0  0  0  0
   -1.1388   11.0556   -5.4688 H   0  0  0  0  0  0  0  0  0  0  0  0
   -2.0731   13.8944   -8.5333 H   0  0  0  0  0  0  0  0  0  0  0  0
    1.2987   11.7210   -5.0742 H   0  0  0  0  0  0  0  0  0  0  0  0
    1.9851   12.4730   -6.5227 H   0  0  0  0  0  0  0  0  0  0  0  0
    1.1432   15.4912   -6.2632 H   0  0  0  0  0  0  0  0  0  0  0  0
    1.2638   16.0247   -4.5496 H   0  0  0  0  0  0  0  0  0  0  0  0
   -0.1716   15.0941   -5.0800 H   0  0  0  0  0  0  0  0  0  0  0  0
    0.4384   13.4258   -3.3915 H   0  0  0  0  0  0  0  0  0  0  0  0
    3.4194   14.3829   -6.0569 H   0  0  0  0  0  0  0  0  0  0  0  0
    3.7309   13.2053   -4.7232 H   0  0  0  0  0  0  0  0  0  0  0  0
    3.5064   14.9488   -4.3459 H   0  0  0  0  0  0  0  0  0  0  0  0
  1  2  1  0
  2  3  2  0
  3  4  1  0
  4  5  1  0
  5  6  1  0
  6  7  2  0
  7  8  1  0
  8  9  1  0
  9 10  2  0
 10 11  1  0
 11 12  2  0
 12 13  1  0
 13 14  2  0
 12 15  1  0
 15 16  1  0
 15 17  2  0
  4 18  2  0
 18 19  1  0
 19 20  2  0
 20 21  1  0
 21 22  2  0
 22 23  1  0
 23 24  1  0
 24 25  2  0
 23 26  1  0
 26 27  1  0
 27 28  1  0
 27 29  1  0
 27 30  1  0
 20  2  1  0
 14  6  1  0
 14  9  1  0
 25 21  1  0
  1 31  1  0
  1 32  1  0
  1 33  1  0
  3 34  1  0
  5 35  1  0
  5 36  1  0
  8 37  1  0
 10 38  1  0
 11 39  1  0
 13 40  1  0
 16 41  1  0
 16 42  1  0
 18 43  1  0
 19 44  1  0
 22 45  1  0
 25 46  1  0
 26 47  1  0
 26 48  1  0
 28 49  1  0
 28 50  1  0
 28 51  1  0
 29 52  1  0
 30 53  1  0
 30 54  1  0
 30 55  1  0
M  END
>  <EmbedRMS>  (3) 
0.043161461368182254

$$$$
3PA
     RDKit          3D

 35 37  0  0  0  0  0  0  0  0999 V2000
   -6.0413   14.4182  -13.0276 O   0  0  0  0  0  0  0  0  0  0  0  0
   -5.6406   13.5291  -12.2292 C   0  0  0  0  0  0  0  0  0  0  0  0
   -6.4397   12.3109  -11.9965 C   0  0  0  0  0  0  0  0  0  0  0  0
   -7.0794   11.6624  -13.0816 C   0  0  0  0  0  0  0  0  0  0  0  0
   -7.7798   10.4571  -12.8778 C   0  0  0  0  0  0  0  0  0  0  0  0
   -6.5407   11.7658  -10.6897 C   0  0  0  0  0  0  0  0  0  0  0  0
   -7.2491   10.5706  -10.5147 C   0  0  0  0  0  0  0  0  0  0  0  0
   -7.8296    9.9360  -11.5788 C   0  0  0  0  0  0  0  0  0  0  0  0
   -8.4219    8.8058  -11.1510 N   0  0  0  0  0  0  0  0  0  0  0  0
   -8.2555    8.6969   -9.8366 N   0  0  0  0  0  0  0  0  0  0  0  0
   -7.5330    9.7578   -9.4090 C   0  0  0  0  0  0  0  0  0  0  0  0
   -7.2444    9.9896   -7.9482 C   0  0  0  0  0  0  0  0  0  0  0  0
   -5.8733   10.5625   -7.7051 C   0  0  0  0  0  0  0  0  0  0  0  0
   -5.7325   11.8236   -7.0998 C   0  0  0  0  0  0  0  0  0  0  0  0
   -4.4590   12.3746   -6.8883 C   0  0  0  0  0  0  0  0  0  0  0  0
   -4.3203   13.7383   -6.2752 C   0  0  0  0  0  0  0  0  0  0  0  0
   -3.3218   11.6641   -7.3036 C   0  0  0  0  0  0  0  0  0  0  0  0
   -3.4559   10.4033   -7.8930 C   0  0  0  0  0  0  0  0  0  0  0  0
   -4.7249    9.8496   -8.0876 C   0  0  0  0  0  0  0  0  0  0  0  0
   -4.3930   13.6930  -11.5654 N   0  0  0  0  0  0  0  0  0  0  0  0
   -7.0115   12.0716  -14.0820 H   0  0  0  0  0  0  0  0  0  0  0  0
   -8.2560    9.9440  -13.7032 H   0  0  0  0  0  0  0  0  0  0  0  0
   -6.0819   12.2632   -9.8475 H   0  0  0  0  0  0  0  0  0  0  0  0
   -8.9478    8.1201  -11.7369 H   0  0  0  0  0  0  0  0  0  0  0  0
   -7.3226    9.0244   -7.4030 H   0  0  0  0  0  0  0  0  0  0  0  0
   -8.0333   10.6585   -7.5423 H   0  0  0  0  0  0  0  0  0  0  0  0
   -6.6121   12.3833   -6.8046 H   0  0  0  0  0  0  0  0  0  0  0  0
   -5.1288   13.9175   -5.5347 H   0  0  0  0  0  0  0  0  0  0  0  0
   -4.3814   14.5084   -7.0723 H   0  0  0  0  0  0  0  0  0  0  0  0
   -3.3462   13.8366   -5.7504 H   0  0  0  0  0  0  0  0  0  0  0  0
   -2.3327   12.0835   -7.1674 H   0  0  0  0  0  0  0  0  0  0  0  0
   -2.5751    9.8562   -8.2036 H   0  0  0  0  0  0  0  0  0  0  0  0
   -4.8152    8.8748   -8.5507 H   0  0  0  0  0  0  0  0  0  0  0  0
   -3.8310   14.5605  -11.7127 H   0  0  0  0  0  0  0  0  0  0  0  0
   -4.0031   12.9434  -10.9517 H   0  0  0  0  0  0  0  0  0  0  0  0
  1  2  2  0
  2  3  1  0
  3  4  2  0
  4  5  1  0
  3  6  1  0
  6  7  2  0
  7  8  1  0
  8  9  1  0
  9 10  1  0
 10 11  2  0
 11 12  1  0
 12 13  1  0
 13 14  2  0
 14 15  1  0
 15 16  1  0
 15 17  2  0
 17 18  1  0
 18 19  2  0
  2 20  1  0
  8  5  2  0
 11  7  1  0
 19 13  1  0
  4 21  1  0
  5 22  1  0
  6 23  1  0
  9 24  1  0
 12 25  1  0
 12 26  1  0
 14 27  1  0
 16 28  1  0
 16 29  1  0
 16 30  1  0
 17 31  1  0
 18 32  1  0
 19 33  1  0
 20 34  1  0
 20 35  1  0
M  END
>  <EmbedRMS>  (4) 
0.044815246638197144

$$$$
