2PB
     RDKit          3D

 45 49  0  0  0  0  0  0  0  0999 V2000
   -0.8755   12.1447   -7.1739 C   0  0  0  0  0  0  0  0  0  0  0  0
   -2.2816   12.4694   -6.9686 N   0  0  0  0  0  0  0  0  0  0  0  0
   -2.7170   13.6270   -6.4813 N   0  0  0  0  0  0  0  0  0  0  0  0
   -4.0723   13.5931   -6.4534 C   0  0  0  0  0  0  0  0  0  0  0  0
   -4.4854   12.3734   -6.9461 C   0  0  0  0  0  0  0  0  0  0  0  0
   -3.3426   11.6958   -7.2584 C   0  0  0  0  0  0  0  0  0  0  0  0
   -3.3792   10.4136   -7.8096 C   0  0  0  0  0  0  0  0  0  0  0  0
   -4.6421    9.8308   -8.0394 C   0  0  0  0  0  0  0  0  0  0  0  0
   -5.8332   10.5303   -7.7120 C   0  0  0  0  0  0  0  0  0  0  0  0
   -7.1811    9.8973   -7.9517 C   0  0  0  0  0  0  0  0  0  0  0  0
   -7.5053    9.6972   -9.4111 C   0  0  0  0  0  0  0  0  0  0  0  0
   -8.2573    8.6583   -9.8448 N   0  0  0  0  0  0  0  0  0  0  0  0
   -8.4463    8.7939  -11.1539 N   0  0  0  0  0  0  0  0  0  0  0  0
   -7.8354    9.9170  -11.5720 C   0  0  0  0  0  0  0  0  0  0  0  0
   -7.2287   10.5231  -10.5062 C   0  0  0  0  0  0  0  0  0  0  0  0
   -6.4956   11.7028  -10.6707 C   0  0  0  0  0  0  0  0  0  0  0  0
   -6.3604   12.2432  -11.9743 C   0  0  0  0  0  0  0  0  0  0  0  0
   -5.5435   13.4055  -12.1986 N   0  0  0  0  0  0  0  0  0  0  0  0
   -4.3118   13.6841  -11.5639 C   0  0  0  0  0  0  0  0  0  0  0  0
   -3.7155   14.9627  -11.9967 C   0  0  0  0  0  0  0  0  0  0  0  0
   -4.6931   15.4747  -13.0636 C   0  0  0  0  0  0  0  0  0  0  0  0
   -5.8463   14.4583  -13.1551 C   0  0  0  0  0  0  0  0  0  0  0  0
   -3.7606   12.9039  -10.7440 O   0  0  0  0  0  0  0  0  0  0  0  0
   -7.0284   11.6226  -13.0614 C   0  0  0  0  0  0  0  0  0  0  0  0
   -7.7758   10.4471  -12.8648 C   0  0  0  0  0  0  0  0  0  0  0  0
   -5.7504   11.8261   -7.1478 C   0  0  0  0  0  0  0  0  0  0  0  0
   -0.6766   12.0157   -8.2585 H   0  0  0  0  0  0  0  0  0  0  0  0
   -0.6250   11.2051   -6.6381 H   0  0  0  0  0  0  0  0  0  0  0  0
   -0.2324   12.9619   -6.7839 H   0  0  0  0  0  0  0  0  0  0  0  0
   -4.7024   14.4011   -6.1063 H   0  0  0  0  0  0  0  0  0  0  0  0
   -2.4705    9.8833   -8.0622 H   0  0  0  0  0  0  0  0  0  0  0  0
   -4.6966    8.8390   -8.4705 H   0  0  0  0  0  0  0  0  0  0  0  0
   -7.9886   10.5128   -7.5004 H   0  0  0  0  0  0  0  0  0  0  0  0
   -7.2017    8.9119   -7.4384 H   0  0  0  0  0  0  0  0  0  0  0  0
   -8.9915    8.1263  -11.7431 H   0  0  0  0  0  0  0  0  0  0  0  0
   -6.0343   12.1895   -9.8268 H   0  0  0  0  0  0  0  0  0  0  0  0
   -2.7062   14.7907  -12.4285 H   0  0  0  0  0  0  0  0  0  0  0  0
   -3.6561   15.6655  -11.1381 H   0  0  0  0  0  0  0  0  0  0  0  0
   -4.1774   15.5615  -14.0452 H   0  0  0  0  0  0  0  0  0  0  0  0
   -5.0839   16.4758  -12.7782 H   0  0  0  0  0  0  0  0  0  0  0  0
   -5.8963   14.0453  -14.1846 H   0  0  0  0  0  0  0  0  0  0  0  0
   -6.8148   14.9374  -12.8944 H   0  0  0  0  0  0  0  0  0  0  0  0
   -6.9460   12.0202  -14.0630 H   0  0  0  0  0  0  0  0  0  0  0  0
   -8.2688    9.9550  -13.6932 H   0  0  0  0  0  0  0  0  0  0  0  0
   -6.6384   12.3902   -6.8913 H   0  0  0  0  0  0  0  0  0  0  0  0
  1  2  1  0
  2  3  1  0
  3  4  2  0
  4  5  1  0
  5  6  2  0
  6  7  1  0
  7  8  2  0
  8  9  1  0
  9 10  1  0
 10 11  1  0
 11 12  2  0
 12 13  1  0
 13 14  1  0
 14 15  2  0
 15 16  1  0
 16 17  2  0
 17 18  1  0
 18 19  1  0
 19 20  1  0
 20 21  1  0
 21 22  1  0
 19 23  2  0
 17 24  1  0
 24 25  2  0
  9 26  2  0
  6  2  1  0
 26  5  1  0
 15 11  1  0
 25 14  1  0
 22 18  1  0
  1 27  1  0
  1 28  1  0
  1 29  1  0
  4 30  1  0
  7 31  1  0
  8 32  1  0
 10 33  1  0
 10 34  1  0
 13 35  1  0
 16 36  1  0
 20 37  1  0
 20 38  1  0
 21 39  1  0
 21 40  1  0
 22 41  1  0
 22 42  1  0
 24 43  1  0
 25 44  1  0
 26 45  1  0
M  END
>  <EmbedRMS>  (1) 
0.039603285836773625

$$$$
2I0
     RDKit          3D

 42 45  0  0  0  0  0  0  0  0999 V2000
   -4.3984   13.8014   -6.3979 C   0  0  0  0  0  0  0  0  0  0  0  0
   -4.4857   12.4013   -6.9286 C   0  0  0  0  0  0  0  0  0  0  0  0
   -3.3173   11.6982   -7.2595 C   0  0  0  0  0  0  0  0  0  0  0  0
   -3.4028   10.4144   -7.8064 C   0  0  0  0  0  0  0  0  0  0  0  0
   -4.6523    9.8283   -8.0373 C   0  0  0  0  0  0  0  0  0  0  0  0
   -5.8304   10.5223   -7.7150 C   0  0  0  0  0  0  0  0  0  0  0  0
   -7.1810    9.8941   -7.9531 C   0  0  0  0  0  0  0  0  0  0  0  0
   -7.5063    9.6963   -9.4120 C   0  0  0  0  0  0  0  0  0  0  0  0
   -8.2580    8.6575   -9.8460 N   0  0  0  0  0  0  0  0  0  0  0  0
   -8.4468    8.7937  -11.1551 N   0  0  0  0  0  0  0  0  0  0  0  0
   -7.8357    9.9169  -11.5726 C   0  0  0  0  0  0  0  0  0  0  0  0
   -7.7759   10.4472  -12.8653 C   0  0  0  0  0  0  0  0  0  0  0  0
   -7.0284   11.6227  -13.0617 C   0  0  0  0  0  0  0  0  0  0  0  0
   -6.3607   12.2432  -11.9744 C   0  0  0  0  0  0  0  0  0  0  0  0
   -6.4961   11.7026  -10.6708 C   0  0  0  0  0  0  0  0  0  0  0  0
   -7.2293   10.5228  -10.5066 C   0  0  0  0  0  0  0  0  0  0  0  0
   -5.5438   13.4056  -12.1986 N   0  0  0  0  0  0  0  0  0  0  0  0
   -5.8465   14.4583  -13.1552 C   0  0  0  0  0  0  0  0  0  0  0  0
   -4.6933   15.4748  -13.0637 C   0  0  0  0  0  0  0  0  0  0  0  0
   -3.7157   14.9628  -11.9968 C   0  0  0  0  0  0  0  0  0  0  0  0
   -4.3122   13.6842  -11.5641 C   0  0  0  0  0  0  0  0  0  0  0  0
   -3.7609   12.9040  -10.7442 O   0  0  0  0  0  0  0  0  0  0  0  0
   -5.7387   11.8107   -7.1588 C   0  0  0  0  0  0  0  0  0  0  0  0
   -5.2506   14.0164   -5.7185 H   0  0  0  0  0  0  0  0  0  0  0  0
   -3.4579   13.9467   -5.8250 H   0  0  0  0  0  0  0  0  0  0  0  0
   -4.4207   14.5181   -7.2453 H   0  0  0  0  0  0  0  0  0  0  0  0
   -2.3434   12.1455   -7.1033 H   0  0  0  0  0  0  0  0  0  0  0  0
   -2.4994    9.8754   -8.0607 H   0  0  0  0  0  0  0  0  0  0  0  0
   -4.7040    8.8353   -8.4664 H   0  0  0  0  0  0  0  0  0  0  0  0
   -7.2042    8.9082   -7.4407 H   0  0  0  0  0  0  0  0  0  0  0  0
   -7.9873   10.5103   -7.5007 H   0  0  0  0  0  0  0  0  0  0  0  0
   -8.9918    8.1263  -11.7446 H   0  0  0  0  0  0  0  0  0  0  0  0
   -8.2687    9.9552  -13.6938 H   0  0  0  0  0  0  0  0  0  0  0  0
   -6.9459   12.0203  -14.0633 H   0  0  0  0  0  0  0  0  0  0  0  0
   -6.0352   12.1895   -9.8269 H   0  0  0  0  0  0  0  0  0  0  0  0
   -5.8964   14.0453  -14.1847 H   0  0  0  0  0  0  0  0  0  0  0  0
   -6.8150   14.9374  -12.8946 H   0  0  0  0  0  0  0  0  0  0  0  0
   -4.1776   15.5617  -14.0453 H   0  0  0  0  0  0  0  0  0  0  0  0
   -5.0842   16.4758  -12.7782 H   0  0  0  0  0  0  0  0  0  0  0  0
   -2.7065   14.7907  -12.4287 H   0  0  0  0  0  0  0  0  0  0  0  0
   -3.6563   15.6656  -11.1383 H   0  0  0  0  0  0  0  0  0  0  0  0
   -6.6409   12.3612   -6.9196 H   0  0  0  0  0  0  0  0  0  0  0  0
  1  2  1  0
  2  3  2  0
  3  4  1  0
  4  5  2  0
  5  6  1  0
  6  7  1  0
  7  8  1  0
  8  9  2  0
  9 10  1  0
 10 11  1  0
 11 12  2  0
 12 13  1  0
 13 14  2  0
 14 15  1  0
 15 16  2  0
 14 17  1  0
 17 18  1  0
 18 19  1  0
 19 20  1  0
 20 21  1  0
 21 22  2  0
  6 23  2  0
 23  2  1  0
 16  8  1  0
 16 11  1  0
 21 17  1  0
  1 24  1  0
  1 25  1  0
  1 26  1  0
  3 27  1  0
  4 28  1  0
  5 29  1  0
  7 30  1  0
  7 31  1  0
 10 32  1  0
 12 33  1  0
 13 34  1  0
 15 35  1  0
 18 36  1  0
 18 37  1  0
 19 38  1  0
 19 39  1  0
 20 40  1  0
 20 41  1  0
 23 42  1  0
M  END
>  <EmbedRMS>  (2) 
0.037660648777250845

$$$$
2I1
     RDKit          3D

 38 41  0  0  0  0  0  0  0  0999 V2000
   -0.8584   12.1559   -7.1639 C   0  0  0  0  0  0  0  0  0  0  0  0
   -2.2655   12.4692   -6.9590 N   0  0  0  0  0  0  0  0  0  0  0  0
   -2.6779   13.6008   -6.3954 N   0  0  0  0  0  0  0  0  0  0  0  0
   -4.0291   13.5727   -6.3422 C   0  0  0  0  0  0  0  0  0  0  0  0
   -4.4678   12.3787   -6.8924 C   0  0  0  0  0  0  0  0  0  0  0  0
   -5.7445   11.8502   -7.0861 C   0  0  0  0  0  0  0  0  0  0  0  0
   -5.8602   10.5788   -7.7001 C   0  0  0  0  0  0  0  0  0  0  0  0
   -7.2247    9.9864   -7.9489 C   0  0  0  0  0  0  0  0  0  0  0  0
   -7.5200    9.7586   -9.4103 C   0  0  0  0  0  0  0  0  0  0  0  0
   -8.2501    8.7020   -9.8369 N   0  0  0  0  0  0  0  0  0  0  0  0
   -8.4214    8.8129  -11.1506 N   0  0  0  0  0  0  0  0  0  0  0  0
   -7.8262    9.9410  -11.5793 C   0  0  0  0  0  0  0  0  0  0  0  0
   -7.7787   10.4622  -12.8781 C   0  0  0  0  0  0  0  0  0  0  0  0
   -7.0772   11.6664  -13.0823 C   0  0  0  0  0  0  0  0  0  0  0  0
   -6.4332   12.3128  -11.9985 C   0  0  0  0  0  0  0  0  0  0  0  0
   -6.5289   11.7657  -10.6919 C   0  0  0  0  0  0  0  0  0  0  0  0
   -7.2391   10.5722  -10.5161 C   0  0  0  0  0  0  0  0  0  0  0  0
   -5.6333   13.5296  -12.2334 C   0  0  0  0  0  0  0  0  0  0  0  0
   -4.3888   13.6960  -11.5647 N   0  0  0  0  0  0  0  0  0  0  0  0
   -6.0289   14.4138  -13.0399 O   0  0  0  0  0  0  0  0  0  0  0  0
   -4.6869    9.8727   -8.0767 C   0  0  0  0  0  0  0  0  0  0  0  0
   -3.4092   10.4388   -7.8674 C   0  0  0  0  0  0  0  0  0  0  0  0
   -3.3407   11.7065   -7.2693 C   0  0  0  0  0  0  0  0  0  0  0  0
   -0.2220   13.0087   -6.8451 H   0  0  0  0  0  0  0  0  0  0  0  0
   -0.5857   11.2596   -6.5684 H   0  0  0  0  0  0  0  0  0  0  0  0
   -0.6736   11.9527   -8.2396 H   0  0  0  0  0  0  0  0  0  0  0  0
   -4.6453   14.3628   -5.9343 H   0  0  0  0  0  0  0  0  0  0  0  0
   -6.6186   12.4130   -6.7834 H   0  0  0  0  0  0  0  0  0  0  0  0
   -8.0208   10.6414   -7.5346 H   0  0  0  0  0  0  0  0  0  0  0  0
   -7.2877    9.0168   -7.4098 H   0  0  0  0  0  0  0  0  0  0  0  0
   -8.9528    8.1302  -11.7350 H   0  0  0  0  0  0  0  0  0  0  0  0
   -8.2588    9.9511  -13.7025 H   0  0  0  0  0  0  0  0  0  0  0  0
   -7.0120   12.0766  -14.0825 H   0  0  0  0  0  0  0  0  0  0  0  0
   -6.0659   12.2608   -9.8506 H   0  0  0  0  0  0  0  0  0  0  0  0
   -4.0000   12.9486  -10.9476 H   0  0  0  0  0  0  0  0  0  0  0  0
   -3.8263   14.5630  -11.7131 H   0  0  0  0  0  0  0  0  0  0  0  0
   -4.7649    8.8974   -8.5406 H   0  0  0  0  0  0  0  0  0  0  0  0
   -2.5127    9.9087   -8.1610 H   0  0  0  0  0  0  0  0  0  0  0  0
  1  2  1  0
  2  3  1  0
  3  4  2  0
  4  5  1  0
  5  6  2  0
  6  7  1  0
  7  8  1  0
  8  9  1  0
  9 10  2  0
 10 11  1  0
 11 12  1  0
 12 13  2  0
 13 14  1  0
 14 15  2  0
 15 16  1  0
 16 17  2  0
 15 18  1  0
 18 19  1  0
 18 20  2  0
  7 21  2  0
 21 22  1  0
 22 23  2  0
 23  2  1  0
 23  5  1  0
 17  9  1  0
 17 12  1  0
  1 24  1  0
  1 25  1  0
  1 26  1  0
  4 27  1  0
  6 28  1  0
  8 29  1  0
  8 30  1  0
 11 31  1  0
 13 32  1  0
 14 33  1  0
 16 34  1  0
 19 35  1  0
 19 36  1  0
 21 37  1  0
 22 38  1  0
M  END
>  <EmbedRMS>  (3) 
0.054358637899188766

$$$$
2PA
     RDKit          3D

 35 37  0  0  0  0  0  0  0  0999 V2000
   -6.0413   14.4182  -13.0276 O   0  0  0  0  0  0  0  0  0  0  0  0
   -5.6406   13.5291  -12.2292 C   0  0  0  0  0  0  0  0  0  0  0  0
   -6.4397   12.3109  -11.9965 C   0  0  0  0  0  0  0  0  0  0  0  0
   -7.0794   11.6624  -13.0816 C   0  0  0  0  0  0  0  0  0  0  0  0
   -7.7798   10.4571  -12.8778 C   0  0  0  0  0  0  0  0  0  0  0  0
   -6.5407   11.7658  -10.6897 C   0  0  0  0  0  0  0  0  0  0  0  0
   -7.2491   10.5706  -10.5147 C   0  0  0  0  0  0  0  0  0  0  0  0
   -7.8296    9.9360  -11.5788 C   0  0  0  0  0  0  0  0  0  0  0  0
   -8.4219    8.8058  -11.1510 N   0  0  0  0  0  0  0  0  0  0  0  0
   -8.2555    8.6969   -9.8366 N   0  0  0  0  0  0  0  0  0  0  0  0
   -7.5330    9.7578   -9.4090 C   0  0  0  0  0  0  0  0  0  0  0  0
   -7.2444    9.9896   -7.9482 C   0  0  0  0  0  0  0  0  0  0  0  0
   -5.8733   10.5625   -7.7051 C   0  0  0  0  0  0  0  0  0  0  0  0
   -5.7325   11.8236   -7.0998 C   0  0  0  0  0  0  0  0  0  0  0  0
   -4.4590   12.3746   -6.8883 C   0  0  0  0  0  0  0  0  0  0  0  0
   -4.3203   13.7383   -6.2752 C   0  0  0  0  0  0  0  0  0  0  0  0
   -3.3218   11.6641   -7.3036 C   0  0  0  0  0  0  0  0  0  0  0  0
   -3.4559   10.4033   -7.8930 C   0  0  0  0  0  0  0  0  0  0  0  0
   -4.7249    9.8496   -8.0876 C   0  0  0  0  0  0  0  0  0  0  0  0
   -4.3930   13.6930  -11.5654 N   0  0  0  0  0  0  0  0  0  0  0  0
   -7.0115   12.0716  -14.0820 H   0  0  0  0  0  0  0  0  0  0  0  0
   -8.2560    9.9440  -13.7032 H   0  0  0  0  0  0  0  0  0  0  0  0
   -6.0819   12.2632   -9.8475 H   0  0  0  0  0  0  0  0  0  0  0  0
   -8.9478    8.1201  -11.7369 H   0  0  0  0  0  0  0  0  0  0  0  0
   -7.3226    9.0244   -7.4030 H   0  0  0  0  0  0  0  0  0  0  0  0
   -8.0333   10.6585   -7.5423 H   0  0  0  0  0  0  0  0  0  0  0  0
   -6.6121   12.3833   -6.8046 H   0  0  0  0  0  0  0  0  0  0  0  0
   -5.1288   13.9175   -5.5347 H   0  0  0  0  0  0  0  0  0  0  0  0
   -4.3814   14.5084   -7.0723 H   0  0  0  0  0  0  0  0  0  0  0  0
   -3.3462   13.8366   -5.7504 H   0  0  0  0  0  0  0  0  0  0  0  0
   -2.3327   12.0835   -7.1674 H   0  0  0  0  0  0  0  0  0  0  0  0
   -2.5751    9.8562   -8.2036 H   0  0  0  0  0  0  0  0  0  0  0  0
   -4.8152    8.8748   -8.5507 H   0  0  0  0  0  0  0  0  0  0  0  0
   -3.8310   14.5605  -11.7127 H   0  0  0  0  0  0  0  0  0  0  0  0
   -4.0031   12.9434  -10.9517 H   0  0  0  0  0  0  0  0  0  0  0  0
  1  2  2  0
  2  3  1  0
  3  4  2  0
  4  5  1  0
  3  6  1  0
  6  7  2  0
  7  8  1  0
  8  9  1  0
  9 10  1  0
 10 11  2  0
 11 12  1  0
 12 13  1  0
 13 14  2  0
 14 15  1  0
 15 16  1  0
 15 17  2  0
 17 18  1  0
 18 19  2  0
  2 20  1  0
  8  5  2  0
 11  7  1  0
 19 13  1  0
  4 21  1  0
  5 22  1  0
  6 23  1  0
  9 24  1  0
 12 25  1  0
 12 26  1  0
 14 27  1  0
 16 28  1  0
 16 29  1  0
 16 30  1  0
 17 31  1  0
 18 32  1  0
 19 33  1  0
 20 34  1  0
 20 35  1  0
M  END
>  <EmbedRMS>  (4) 
0.044815246638197144

$$$$
