4PB
     RDKit          3D

 55 58  0  0  0  0  0  0  0  0999 V2000
   -3.5845   14.8853  -11.5395 C   0  0  0  0  0  0  0  0  0  0  0  0
   -4.3977   13.6837  -11.4662 N   0  0  0  0  0  0  0  0  0  0  0  0
   -5.6094   13.5270  -12.2072 C   0  0  0  0  0  0  0  0  0  0  0  0
   -6.4083   12.3032  -12.0170 C   0  0  0  0  0  0  0  0  0  0  0  0
   -6.5409   11.7484  -10.7179 C   0  0  0  0  0  0  0  0  0  0  0  0
   -7.2483   10.5517  -10.5694 C   0  0  0  0  0  0  0  0  0  0  0  0
   -7.8038    9.9262  -11.6519 C   0  0  0  0  0  0  0  0  0  0  0  0
   -8.4033    8.7919  -11.2482 N   0  0  0  0  0  0  0  0  0  0  0  0
   -8.2645    8.6710   -9.9319 N   0  0  0  0  0  0  0  0  0  0  0  0
   -7.5559    9.7295   -9.4774 C   0  0  0  0  0  0  0  0  0  0  0  0
   -7.3089    9.9482   -8.0072 C   0  0  0  0  0  0  0  0  0  0  0  0
   -5.9529   10.5333   -7.7219 C   0  0  0  0  0  0  0  0  0  0  0  0
   -4.7874    9.8132   -8.0323 C   0  0  0  0  0  0  0  0  0  0  0  0
   -3.5284   10.3718   -7.7878 C   0  0  0  0  0  0  0  0  0  0  0  0
   -3.4223   11.6588   -7.2425 C   0  0  0  0  0  0  0  0  0  0  0  0
   -4.5835   12.3802   -6.9338 C   0  0  0  0  0  0  0  0  0  0  0  0
   -5.8416   11.8141   -7.1547 C   0  0  0  0  0  0  0  0  0  0  0  0
   -2.1050   12.2711   -7.0404 C   0  0  0  0  0  0  0  0  0  0  0  0
   -1.1112   11.8835   -6.1653 C   0  0  0  0  0  0  0  0  0  0  0  0
   -0.0735   12.7338   -6.3315 N   0  0  0  0  0  0  0  0  0  0  0  0
   -0.3448   13.5951   -7.3015 N   0  0  0  0  0  0  0  0  0  0  0  0
   -1.5922   13.3490   -7.7335 C   0  0  0  0  0  0  0  0  0  0  0  0
    1.2471   12.6353   -5.7091 C   0  0  0  0  0  0  0  0  0  0  0  0
    1.6640   13.8815   -4.8455 C   0  0  0  0  0  0  0  0  0  0  0  0
    0.9270   15.1870   -5.2060 C   0  0  0  0  0  0  0  0  0  0  0  0
    1.3903   13.6220   -3.4901 O   0  0  0  0  0  0  0  0  0  0  0  0
    3.1793   14.1291   -5.0166 C   0  0  0  0  0  0  0  0  0  0  0  0
   -7.7259   10.4575  -12.9450 C   0  0  0  0  0  0  0  0  0  0  0  0
   -7.0188   11.6628  -13.1234 C   0  0  0  0  0  0  0  0  0  0  0  0
   -5.9817   14.4161  -13.0215 O   0  0  0  0  0  0  0  0  0  0  0  0
   -3.2617   15.0583  -12.5877 H   0  0  0  0  0  0  0  0  0  0  0  0
   -2.6831   14.7729  -10.9010 H   0  0  0  0  0  0  0  0  0  0  0  0
   -4.1714   15.7577  -11.1828 H   0  0  0  0  0  0  0  0  0  0  0  0
   -4.0509   12.8984  -10.8698 H   0  0  0  0  0  0  0  0  0  0  0  0
   -6.1107   12.2424   -9.8596 H   0  0  0  0  0  0  0  0  0  0  0  0
   -8.9141    8.1101  -11.8518 H   0  0  0  0  0  0  0  0  0  0  0  0
   -8.1152   10.6040   -7.6142 H   0  0  0  0  0  0  0  0  0  0  0  0
   -7.3914    8.9762   -7.4746 H   0  0  0  0  0  0  0  0  0  0  0  0
   -4.8557    8.8242   -8.4682 H   0  0  0  0  0  0  0  0  0  0  0  0
   -2.6376    9.8093   -8.0397 H   0  0  0  0  0  0  0  0  0  0  0  0
   -4.5139   13.3787   -6.5195 H   0  0  0  0  0  0  0  0  0  0  0  0
   -6.7271   12.3875   -6.9103 H   0  0  0  0  0  0  0  0  0  0  0  0
   -1.1354   11.0499   -5.4751 H   0  0  0  0  0  0  0  0  0  0  0  0
   -2.0865   13.9015   -8.5212 H   0  0  0  0  0  0  0  0  0  0  0  0
    1.9811   12.4799   -6.5305 H   0  0  0  0  0  0  0  0  0  0  0  0
    1.2998   11.7109   -5.0926 H   0  0  0  0  0  0  0  0  0  0  0  0
    1.1270   15.4777   -6.2594 H   0  0  0  0  0  0  0  0  0  0  0  0
   -0.1673   15.0738   -5.0519 H   0  0  0  0  0  0  0  0  0  0  0  0
    1.2701   16.0161   -4.5500 H   0  0  0  0  0  0  0  0  0  0  0  0
    1.9523   12.8569   -3.1973 H   0  0  0  0  0  0  0  0  0  0  0  0
    3.4152   14.4195   -6.0634 H   0  0  0  0  0  0  0  0  0  0  0  0
    3.7551   13.2111   -4.7696 H   0  0  0  0  0  0  0  0  0  0  0  0
    3.5193   14.9418   -4.3390 H   0  0  0  0  0  0  0  0  0  0  0  0
   -8.1825    9.9506  -13.7851 H   0  0  0  0  0  0  0  0  0  0  0  0
   -6.9267   12.0805  -14.1182 H   0  0  0  0  0  0  0  0  0  0  0  0
  1  2  1  0
  2  3  1  0
  3  4  1  0
  4  5  2  0
  5  6  1  0
  6  7  2  0
  7  8  1  0
  8  9  1  0
  9 10  2  0
 10 11  1  0
 11 12  1  0
 12 13  2  0
 13 14  1  0
 14 15  2  0
 15 16  1  0
 16 17  2  0
 15 18  1  0
 18 19  2  0
 19 20  1  0
 20 21  1  0
 21 22  2  0
 20 23  1  0
 23 24  1  0
 24 25  1  0
 24 26  1  0
 24 27  1  0
  7 28  1  0
 28 29  2  0
  3 30  2  0
 29  4  1  0
 10  6  1  0
 17 12  1  0
 22 18  1  0
  1 31  1  0
  1 32  1  0
  1 33  1  0
  2 34  1  0
  5 35  1  0
  8 36  1  0
 11 37  1  0
 11 38  1  0
 13 39  1  0
 14 40  1  0
 16 41  1  0
 17 42  1  0
 19 43  1  0
 22 44  1  0
 23 45  1  0
 23 46  1  0
 25 47  1  0
 25 48  1  0
 25 49  1  0
 26 50  1  0
 27 51  1  0
 27 52  1  0
 27 53  1  0
 28 54  1  0
 29 55  1  0
M  END
>  <EmbedRMS>  (1) 
0.04421172073674505

$$$$
4I0
     RDKit          3D

 67 71  0  0  0  0  0  0  0  0999 V2000
   -2.1611    8.4120   -8.6248 C   0  0  0  0  0  0  0  0  0  0  0  0
   -2.2272    9.7149   -8.0551 O   0  0  0  0  0  0  0  0  0  0  0  0
   -3.4189   10.4064   -7.7802 C   0  0  0  0  0  0  0  0  0  0  0  0
   -4.6840    9.8360   -8.0403 C   0  0  0  0  0  0  0  0  0  0  0  0
   -5.8616   10.5478   -7.7637 C   0  0  0  0  0  0  0  0  0  0  0  0
   -7.2145    9.9255   -8.0205 C   0  0  0  0  0  0  0  0  0  0  0  0
   -7.5254    9.7258   -9.4846 C   0  0  0  0  0  0  0  0  0  0  0  0
   -8.2539    8.6766   -9.9326 N   0  0  0  0  0  0  0  0  0  0  0  0
   -8.4322    8.8166  -11.2438 N   0  0  0  0  0  0  0  0  0  0  0  0
   -7.8381    9.9534  -11.6509 C   0  0  0  0  0  0  0  0  0  0  0  0
   -7.7721   10.4983  -12.9419 C   0  0  0  0  0  0  0  0  0  0  0  0
   -7.0588   11.7029  -13.1156 C   0  0  0  0  0  0  0  0  0  0  0  0
   -6.4441   12.3288  -12.0040 C   0  0  0  0  0  0  0  0  0  0  0  0
   -5.6338   13.5467  -12.1612 C   0  0  0  0  0  0  0  0  0  0  0  0
   -4.4012   13.6720  -11.4398 N   0  0  0  0  0  0  0  0  0  0  0  0
   -3.8730   14.9707  -11.0441 C   0  0  0  0  0  0  0  0  0  0  0  0
   -2.4673   15.0972  -11.6261 C   0  0  0  0  0  0  0  0  0  0  0  0
   -1.6492   14.0176  -11.2038 O   0  0  0  0  0  0  0  0  0  0  0  0
   -2.1541   12.7806  -11.6796 C   0  0  0  0  0  0  0  0  0  0  0  0
   -3.5581   12.5130  -11.1374 C   0  0  0  0  0  0  0  0  0  0  0  0
   -6.0476   14.4942  -12.8827 O   0  0  0  0  0  0  0  0  0  0  0  0
   -6.5724   11.7649  -10.7129 C   0  0  0  0  0  0  0  0  0  0  0  0
   -7.2609   10.5629  -10.5719 C   0  0  0  0  0  0  0  0  0  0  0  0
   -5.7689   11.8432   -7.2301 C   0  0  0  0  0  0  0  0  0  0  0  0
   -4.5202   12.4258   -6.9940 C   0  0  0  0  0  0  0  0  0  0  0  0
   -3.3404   11.7099   -7.2485 C   0  0  0  0  0  0  0  0  0  0  0  0
   -2.0300   12.3248   -6.9454 C   0  0  0  0  0  0  0  0  0  0  0  0
   -1.0143   11.7894   -6.1816 C   0  0  0  0  0  0  0  0  0  0  0  0
   -0.0237   12.7036   -6.1152 N   0  0  0  0  0  0  0  0  0  0  0  0
    1.2250   12.5744   -5.3664 C   0  0  0  0  0  0  0  0  0  0  0  0
    1.1249   13.1838   -3.9435 C   0  0  0  0  0  0  0  0  0  0  0  0
    0.8461   14.5623   -4.0233 O   0  0  0  0  0  0  0  0  0  0  0  0
    0.0500   12.4655   -3.0983 C   0  0  0  0  0  0  0  0  0  0  0  0
    2.4845   13.0257   -3.2446 C   0  0  0  0  0  0  0  0  0  0  0  0
   -0.3497   13.7848   -6.8082 N   0  0  0  0  0  0  0  0  0  0  0  0
   -1.5772   13.5793   -7.3236 C   0  0  0  0  0  0  0  0  0  0  0  0
   -2.6381    8.4097   -9.6277 H   0  0  0  0  0  0  0  0  0  0  0  0
   -2.6629    7.6783   -7.9592 H   0  0  0  0  0  0  0  0  0  0  0  0
   -1.0971    8.1197   -8.7370 H   0  0  0  0  0  0  0  0  0  0  0  0
   -4.7644    8.8392   -8.4527 H   0  0  0  0  0  0  0  0  0  0  0  0
   -7.2514    8.9411   -7.5060 H   0  0  0  0  0  0  0  0  0  0  0  0
   -8.0220   10.5478   -7.5788 H   0  0  0  0  0  0  0  0  0  0  0  0
   -8.9583    8.1420  -11.8423 H   0  0  0  0  0  0  0  0  0  0  0  0
   -8.2386   10.0010  -13.7823 H   0  0  0  0  0  0  0  0  0  0  0  0
   -6.9685   12.1316  -14.1058 H   0  0  0  0  0  0  0  0  0  0  0  0
   -3.8272   15.0286   -9.9347 H   0  0  0  0  0  0  0  0  0  0  0  0
   -4.5087   15.8047  -11.4113 H   0  0  0  0  0  0  0  0  0  0  0  0
   -2.5099   15.1498  -12.7378 H   0  0  0  0  0  0  0  0  0  0  0  0
   -2.0156   16.0454  -11.2659 H   0  0  0  0  0  0  0  0  0  0  0  0
   -1.4788   11.9675  -11.3391 H   0  0  0  0  0  0  0  0  0  0  0  0
   -2.1609   12.7635  -12.7930 H   0  0  0  0  0  0  0  0  0  0  0  0
   -3.9456   11.5838  -11.6070 H   0  0  0  0  0  0  0  0  0  0  0  0
   -3.5127   12.3661  -10.0383 H   0  0  0  0  0  0  0  0  0  0  0  0
   -6.1341   12.2534   -9.8568 H   0  0  0  0  0  0  0  0  0  0  0  0
   -6.6640   12.4120   -7.0113 H   0  0  0  0  0  0  0  0  0  0  0  0
   -4.4733   13.4290   -6.5882 H   0  0  0  0  0  0  0  0  0  0  0  0
   -1.0086   10.8264   -5.6868 H   0  0  0  0  0  0  0  0  0  0  0  0
    2.0346   13.0854   -5.9329 H   0  0  0  0  0  0  0  0  0  0  0  0
    1.5041   11.4991   -5.2998 H   0  0  0  0  0  0  0  0  0  0  0  0
   -0.0963   14.6751   -4.3130 H   0  0  0  0  0  0  0  0  0  0  0  0
   -0.9618   12.6112   -3.5310 H   0  0  0  0  0  0  0  0  0  0  0  0
    0.2575   11.3750   -3.0454 H   0  0  0  0  0  0  0  0  0  0  0  0
    0.0350   12.8747   -2.0653 H   0  0  0  0  0  0  0  0  0  0  0  0
    3.2798   13.5444   -3.8222 H   0  0  0  0  0  0  0  0  0  0  0  0
    2.4522   13.4738   -2.2280 H   0  0  0  0  0  0  0  0  0  0  0  0
    2.7586   11.9526   -3.1497 H   0  0  0  0  0  0  0  0  0  0  0  0
   -2.1109   14.2969   -7.9326 H   0  0  0  0  0  0  0  0  0  0  0  0
  1  2  1  0
  2  3  1  0
  3  4  2  0
  4  5  1  0
  5  6  1  0
  6  7  1  0
  7  8  2  0
  8  9  1  0
  9 10  1  0
 10 11  2  0
 11 12  1  0
 12 13  2  0
 13 14  1  0
 14 15  1  0
 15 16  1  0
 16 17  1  0
 17 18  1  0
 18 19  1  0
 19 20  1  0
 14 21  2  0
 13 22  1  0
 22 23  2  0
  5 24  2  0
 24 25  1  0
 25 26  2  0
 26 27  1  0
 27 28  2  0
 28 29  1  0
 29 30  1  0
 30 31  1  0
 31 32  1  0
 31 33  1  0
 31 34  1  0
 29 35  1  0
 35 36  2  0
 26  3  1  0
 23  7  1  0
 23 10  1  0
 20 15  1  0
 36 27  1  0
  1 37  1  0
  1 38  1  0
  1 39  1  0
  4 40  1  0
  6 41  1  0
  6 42  1  0
  9 43  1  0
 11 44  1  0
 12 45  1  0
 16 46  1  0
 16 47  1  0
 17 48  1  0
 17 49  1  0
 19 50  1  0
 19 51  1  0
 20 52  1  0
 20 53  1  0
 22 54  1  0
 24 55  1  0
 25 56  1  0
 28 57  1  0
 30 58  1  0
 30 59  1  0
 32 60  1  0
 33 61  1  0
 33 62  1  0
 33 63  1  0
 34 64  1  0
 34 65  1  0
 34 66  1  0
 36 67  1  0
M  END
>  <EmbedRMS>  (2) 
0.04432415747422059

$$$$
4I1
     RDKit          3D

 59 62  0  0  0  0  0  0  0  0999 V2000
   -3.5847   14.8855  -11.5388 C   0  0  0  0  0  0  0  0  0  0  0  0
   -4.3978   13.6839  -11.4655 N   0  0  0  0  0  0  0  0  0  0  0  0
   -5.6094   13.5271  -12.2068 C   0  0  0  0  0  0  0  0  0  0  0  0
   -6.4083   12.3033  -12.0166 C   0  0  0  0  0  0  0  0  0  0  0  0
   -7.0187   11.6630  -13.1231 C   0  0  0  0  0  0  0  0  0  0  0  0
   -7.7259   10.4579  -12.9450 C   0  0  0  0  0  0  0  0  0  0  0  0
   -7.8040    9.9264  -11.6522 C   0  0  0  0  0  0  0  0  0  0  0  0
   -8.4036    8.7919  -11.2490 N   0  0  0  0  0  0  0  0  0  0  0  0
   -8.2646    8.6701   -9.9329 N   0  0  0  0  0  0  0  0  0  0  0  0
   -7.5557    9.7281   -9.4779 C   0  0  0  0  0  0  0  0  0  0  0  0
   -7.3069    9.9429   -8.0078 C   0  0  0  0  0  0  0  0  0  0  0  0
   -5.9521   10.5315   -7.7224 C   0  0  0  0  0  0  0  0  0  0  0  0
   -4.7864    9.8147   -8.0316 C   0  0  0  0  0  0  0  0  0  0  0  0
   -3.5304   10.3753   -7.7860 C   0  0  0  0  0  0  0  0  0  0  0  0
   -3.4248   11.6622   -7.2402 C   0  0  0  0  0  0  0  0  0  0  0  0
   -2.1003   12.2663   -7.0449 C   0  0  0  0  0  0  0  0  0  0  0  0
   -1.1095   11.8832   -6.1642 C   0  0  0  0  0  0  0  0  0  0  0  0
   -0.0723   12.7350   -6.3284 N   0  0  0  0  0  0  0  0  0  0  0  0
    1.2465   12.6419   -5.6991 C   0  0  0  0  0  0  0  0  0  0  0  0
    1.6609   13.8927   -4.8448 C   0  0  0  0  0  0  0  0  0  0  0  0
    1.3921   13.6007   -3.4943 O   0  0  0  0  0  0  0  0  0  0  0  0
    0.9220   15.1980   -5.2171 C   0  0  0  0  0  0  0  0  0  0  0  0
    3.1787   14.1215   -5.0169 C   0  0  0  0  0  0  0  0  0  0  0  0
   -0.3419   13.5936   -7.3012 N   0  0  0  0  0  0  0  0  0  0  0  0
   -1.5872   13.3448   -7.7371 C   0  0  0  0  0  0  0  0  0  0  0  0
   -4.5855   12.3927   -6.9285 C   0  0  0  0  0  0  0  0  0  0  0  0
   -4.4494   13.6858   -6.3953 O   0  0  0  0  0  0  0  0  0  0  0  0
   -5.5368   14.5426   -6.0633 C   0  0  0  0  0  0  0  0  0  0  0  0
   -5.8466   11.8117   -7.1557 C   0  0  0  0  0  0  0  0  0  0  0  0
   -7.2483   10.5514  -10.5693 C   0  0  0  0  0  0  0  0  0  0  0  0
   -6.5409   11.7481  -10.7175 C   0  0  0  0  0  0  0  0  0  0  0  0
   -5.9816   14.4160  -13.0212 O   0  0  0  0  0  0  0  0  0  0  0  0
   -4.1716   15.7577  -11.1820 H   0  0  0  0  0  0  0  0  0  0  0  0
   -3.2618   15.0586  -12.5870 H   0  0  0  0  0  0  0  0  0  0  0  0
   -2.6833   14.7732  -10.9002 H   0  0  0  0  0  0  0  0  0  0  0  0
   -4.0513   12.8989  -10.8686 H   0  0  0  0  0  0  0  0  0  0  0  0
   -6.9266   12.0810  -14.1179 H   0  0  0  0  0  0  0  0  0  0  0  0
   -8.1825    9.9512  -13.7853 H   0  0  0  0  0  0  0  0  0  0  0  0
   -8.9145    8.1105  -11.8529 H   0  0  0  0  0  0  0  0  0  0  0  0
   -8.1163   10.5928   -7.6113 H   0  0  0  0  0  0  0  0  0  0  0  0
   -7.3850    8.9687   -7.4786 H   0  0  0  0  0  0  0  0  0  0  0  0
   -4.8523    8.8255   -8.4677 H   0  0  0  0  0  0  0  0  0  0  0  0
   -2.6391    9.8135   -8.0378 H   0  0  0  0  0  0  0  0  0  0  0  0
   -1.1366   11.0536   -5.4693 H   0  0  0  0  0  0  0  0  0  0  0  0
    1.9827   12.4708   -6.5155 H   0  0  0  0  0  0  0  0  0  0  0  0
    1.2946   11.7287   -5.0647 H   0  0  0  0  0  0  0  0  0  0  0  0
    1.7157   14.3565   -2.9362 H   0  0  0  0  0  0  0  0  0  0  0  0
   -0.1713   15.0875   -5.0545 H   0  0  0  0  0  0  0  0  0  0  0  0
    1.1172   15.4730   -6.2753 H   0  0  0  0  0  0  0  0  0  0  0  0
    1.2710   16.0396   -4.5807 H   0  0  0  0  0  0  0  0  0  0  0  0
    3.5258   14.9674   -4.3851 H   0  0  0  0  0  0  0  0  0  0  0  0
    3.4237   14.3565   -6.0754 H   0  0  0  0  0  0  0  0  0  0  0  0
    3.7410   13.2119   -4.7142 H   0  0  0  0  0  0  0  0  0  0  0  0
   -2.0812   13.8976   -8.5248 H   0  0  0  0  0  0  0  0  0  0  0  0
   -6.1474   14.7517   -6.9671 H   0  0  0  0  0  0  0  0  0  0  0  0
   -6.1646   14.0752   -5.2756 H   0  0  0  0  0  0  0  0  0  0  0  0
   -5.1366   15.5016   -5.6756 H   0  0  0  0  0  0  0  0  0  0  0  0
   -6.7489   12.3598   -6.9208 H   0  0  0  0  0  0  0  0  0  0  0  0
   -6.1108   12.2421   -9.8590 H   0  0  0  0  0  0  0  0  0  0  0  0
  1  2  1  0
  2  3  1  0
  3  4  1  0
  4  5  2  0
  5  6  1  0
  6  7  2  0
  7  8  1  0
  8  9  1  0
  9 10  2  0
 10 11  1  0
 11 12  1  0
 12 13  2  0
 13 14  1  0
 14 15  2  0
 15 16  1  0
 16 17  2  0
 17 18  1  0
 18 19  1  0
 19 20  1  0
 20 21  1  0
 20 22  1  0
 20 23  1  0
 18 24  1  0
 24 25  2  0
 15 26  1  0
 26 27  1  0
 27 28  1  0
 26 29  2  0
  7 30  1  0
 30 31  2  0
  3 32  2  0
 31  4  1  0
 30 10  1  0
 29 12  1  0
 25 16  1  0
  1 33  1  0
  1 34  1  0
  1 35  1  0
  2 36  1  0
  5 37  1  0
  6 38  1  0
  8 39  1  0
 11 40  1  0
 11 41  1  0
 13 42  1  0
 14 43  1  0
 17 44  1  0
 19 45  1  0
 19 46  1  0
 21 47  1  0
 22 48  1  0
 22 49  1  0
 22 50  1  0
 23 51  1  0
 23 52  1  0
 23 53  1  0
 25 54  1  0
 28 55  1  0
 28 56  1  0
 28 57  1  0
 29 58  1  0
 31 59  1  0
M  END
>  <EmbedRMS>  (3) 
0.04411914140695682

$$$$
4PA
     RDKit          3D

 51 54  0  0  0  0  0  0  0  0999 V2000
   -6.0480   14.4942  -12.8824 O   0  0  0  0  0  0  0  0  0  0  0  0
   -5.6344   13.5469  -12.1607 C   0  0  0  0  0  0  0  0  0  0  0  0
   -4.4015   13.6721  -11.4398 N   0  0  0  0  0  0  0  0  0  0  0  0
   -3.8733   14.9707  -11.0438 C   0  0  0  0  0  0  0  0  0  0  0  0
   -2.4679   15.0976  -11.6268 C   0  0  0  0  0  0  0  0  0  0  0  0
   -1.6494   14.0180  -11.2049 O   0  0  0  0  0  0  0  0  0  0  0  0
   -2.1542   12.7811  -11.6809 C   0  0  0  0  0  0  0  0  0  0  0  0
   -3.5583   12.5130  -11.1388 C   0  0  0  0  0  0  0  0  0  0  0  0
   -6.4445   12.3289  -12.0033 C   0  0  0  0  0  0  0  0  0  0  0  0
   -7.0589   11.7033  -13.1153 C   0  0  0  0  0  0  0  0  0  0  0  0
   -7.7722   10.4988  -12.9422 C   0  0  0  0  0  0  0  0  0  0  0  0
   -6.5728   11.7643  -10.7121 C   0  0  0  0  0  0  0  0  0  0  0  0
   -7.2616   10.5621  -10.5718 C   0  0  0  0  0  0  0  0  0  0  0  0
   -7.8386    9.9535  -11.6515 C   0  0  0  0  0  0  0  0  0  0  0  0
   -8.4330    8.8164  -11.2457 N   0  0  0  0  0  0  0  0  0  0  0  0
   -8.2551    8.6750   -9.9348 N   0  0  0  0  0  0  0  0  0  0  0  0
   -7.5268    9.7234   -9.4854 C   0  0  0  0  0  0  0  0  0  0  0  0
   -7.2160    9.9175   -8.0213 C   0  0  0  0  0  0  0  0  0  0  0  0
   -5.8653   10.5412   -7.7632 C   0  0  0  0  0  0  0  0  0  0  0  0
   -5.7770   11.8348   -7.2230 C   0  0  0  0  0  0  0  0  0  0  0  0
   -4.5227   12.4303   -6.9839 C   0  0  0  0  0  0  0  0  0  0  0  0
   -4.4016   13.7338   -6.4768 O   0  0  0  0  0  0  0  0  0  0  0  0
   -5.4994   14.5955   -6.1951 C   0  0  0  0  0  0  0  0  0  0  0  0
   -3.3484   11.7147   -7.2640 C   0  0  0  0  0  0  0  0  0  0  0  0
   -2.1134   12.3380   -7.0261 O   0  0  0  0  0  0  0  0  0  0  0  0
   -0.8487   11.7654   -7.3414 C   0  0  0  0  0  0  0  0  0  0  0  0
   -3.4391   10.4112   -7.7894 C   0  0  0  0  0  0  0  0  0  0  0  0
   -4.6872    9.8342   -8.0431 C   0  0  0  0  0  0  0  0  0  0  0  0
   -4.5094   15.8048  -11.4102 H   0  0  0  0  0  0  0  0  0  0  0  0
   -3.8268   15.0279   -9.9343 H   0  0  0  0  0  0  0  0  0  0  0  0
   -2.0162   16.0459  -11.2673 H   0  0  0  0  0  0  0  0  0  0  0  0
   -2.5114   15.1499  -12.7385 H   0  0  0  0  0  0  0  0  0  0  0  0
   -2.1612   12.7643  -12.7944 H   0  0  0  0  0  0  0  0  0  0  0  0
   -1.4786   11.9680  -11.3410 H   0  0  0  0  0  0  0  0  0  0  0  0
   -3.9458   11.5843  -11.6093 H   0  0  0  0  0  0  0  0  0  0  0  0
   -3.5128   12.3652  -10.0400 H   0  0  0  0  0  0  0  0  0  0  0  0
   -6.9684   12.1324  -14.1053 H   0  0  0  0  0  0  0  0  0  0  0  0
   -8.2384   10.0019  -13.7829 H   0  0  0  0  0  0  0  0  0  0  0  0
   -6.1346   12.2524   -9.8554 H   0  0  0  0  0  0  0  0  0  0  0  0
   -8.9588    8.1424  -11.8451 H   0  0  0  0  0  0  0  0  0  0  0  0
   -8.0261   10.5343   -7.5764 H   0  0  0  0  0  0  0  0  0  0  0  0
   -7.2495    8.9306   -7.5114 H   0  0  0  0  0  0  0  0  0  0  0  0
   -6.6871   12.3783   -7.0086 H   0  0  0  0  0  0  0  0  0  0  0  0
   -6.0875   14.7784   -7.1194 H   0  0  0  0  0  0  0  0  0  0  0  0
   -5.1119   15.5659   -5.8231 H   0  0  0  0  0  0  0  0  0  0  0  0
   -6.1458   14.1472   -5.4113 H   0  0  0  0  0  0  0  0  0  0  0  0
   -0.6980   10.8293   -6.7634 H   0  0  0  0  0  0  0  0  0  0  0  0
   -0.7854   11.5581   -8.4309 H   0  0  0  0  0  0  0  0  0  0  0  0
   -0.0480   12.4832   -7.0695 H   0  0  0  0  0  0  0  0  0  0  0  0
   -2.5508    9.8387   -8.0179 H   0  0  0  0  0  0  0  0  0  0  0  0
   -4.7373    8.8343   -8.4563 H   0  0  0  0  0  0  0  0  0  0  0  0
  1  2  2  0
  2  3  1  0
  3  4  1  0
  4  5  1  0
  5  6  1  0
  6  7  1  0
  7  8  1  0
  2  9  1  0
  9 10  2  0
 10 11  1  0
  9 12  1  0
 12 13  2  0
 13 14  1  0
 14 15  1  0
 15 16  1  0
 16 17  2  0
 17 18  1  0
 18 19  1  0
 19 20  2  0
 20 21  1  0
 21 22  1  0
 22 23  1  0
 21 24  2  0
 24 25  1  0
 25 26  1  0
 24 27  1  0
 27 28  2  0
  8  3  1  0
 14 11  2  0
 17 13  1  0
 28 19  1  0
  4 29  1  0
  4 30  1  0
  5 31  1  0
  5 32  1  0
  7 33  1  0
  7 34  1  0
  8 35  1  0
  8 36  1  0
 10 37  1  0
 11 38  1  0
 12 39  1  0
 15 40  1  0
 18 41  1  0
 18 42  1  0
 20 43  1  0
 23 44  1  0
 23 45  1  0
 23 46  1  0
 26 47  1  0
 26 48  1  0
 26 49  1  0
 27 50  1  0
 28 51  1  0
M  END
>  <EmbedRMS>  (4) 
0.04623429360919407

$$$$
