1PB
     RDKit          3D

 47 50  0  0  0  0  0  0  0  0999 V2000
   -6.9754   12.1597  -14.3852 O   0  0  0  0  0  0  0  0  0  0  0  0
   -7.0884   11.6419  -13.0942 C   0  0  0  0  0  0  0  0  0  0  0  0
   -7.7881   10.4306  -12.8827 C   0  0  0  0  0  0  0  0  0  0  0  0
   -7.8508    9.9202  -11.5800 C   0  0  0  0  0  0  0  0  0  0  0  0
   -7.3009   10.5735  -10.5145 C   0  0  0  0  0  0  0  0  0  0  0  0
   -6.6417   11.7909  -10.6819 C   0  0  0  0  0  0  0  0  0  0  0  0
   -6.4905   12.3159  -11.9909 C   0  0  0  0  0  0  0  0  0  0  0  0
   -5.6784   13.5405  -12.1791 C   0  0  0  0  0  0  0  0  0  0  0  0
   -4.3885   13.6556  -11.5649 N   0  0  0  0  0  0  0  0  0  0  0  0
   -3.5669   14.8475  -11.6692 C   0  0  0  0  0  0  0  0  0  0  0  0
   -2.2393   14.4765  -11.0200 C   0  0  0  0  0  0  0  0  0  0  0  0
   -2.2060   12.9459  -11.0138 C   0  0  1  0  0  0  0  0  0  0  0  0
   -3.6653   12.5368  -10.9813 C   0  0  0  0  0  0  0  0  0  0  0  0
   -1.6280   12.4617  -12.1987 O   0  0  0  0  0  0  0  0  0  0  0  0
   -6.1228   14.4915  -12.8764 O   0  0  0  0  0  0  0  0  0  0  0  0
   -7.5593    9.7573   -9.4080 C   0  0  0  0  0  0  0  0  0  0  0  0
   -7.2516    9.9919   -7.9501 C   0  0  0  0  0  0  0  0  0  0  0  0
   -5.8765   10.5670   -7.7163 C   0  0  0  0  0  0  0  0  0  0  0  0
   -5.7333   11.8264   -7.1068 C   0  0  0  0  0  0  0  0  0  0  0  0
   -4.4599   12.3847   -6.9107 C   0  0  0  0  0  0  0  0  0  0  0  0
   -4.3179   13.7331   -6.2653 C   0  0  0  0  0  0  0  0  0  0  0  0
   -3.3211   11.6558   -7.2875 C   0  0  0  0  0  0  0  0  0  0  0  0
   -3.4564   10.3970   -7.8816 C   0  0  0  0  0  0  0  0  0  0  0  0
   -4.7273    9.8521   -8.0944 C   0  0  0  0  0  0  0  0  0  0  0  0
   -8.2537    8.6771   -9.8344 N   0  0  0  0  0  0  0  0  0  0  0  0
   -8.4209    8.7793  -11.1498 N   0  0  0  0  0  0  0  0  0  0  0  0
   -7.3897   11.6911  -15.1824 H   0  0  0  0  0  0  0  0  0  0  0  0
   -8.2419    9.8950  -13.7066 H   0  0  0  0  0  0  0  0  0  0  0  0
   -6.2591   12.3231   -9.8241 H   0  0  0  0  0  0  0  0  0  0  0  0
   -4.0468   15.6974  -11.1377 H   0  0  0  0  0  0  0  0  0  0  0  0
   -3.4114   15.1047  -12.7397 H   0  0  0  0  0  0  0  0  0  0  0  0
   -1.3784   14.9119  -11.5726 H   0  0  0  0  0  0  0  0  0  0  0  0
   -2.2226   14.8479   -9.9714 H   0  0  0  0  0  0  0  0  0  0  0  0
   -1.6649   12.5508  -10.1224 H   0  0  0  0  0  0  0  0  0  0  0  0
   -3.9869   12.3953   -9.9312 H   0  0  0  0  0  0  0  0  0  0  0  0
   -3.8308   11.6009  -11.5598 H   0  0  0  0  0  0  0  0  0  0  0  0
   -0.6456   12.5571  -12.0922 H   0  0  0  0  0  0  0  0  0  0  0  0
   -8.0368   10.6604   -7.5366 H   0  0  0  0  0  0  0  0  0  0  0  0
   -7.3249    9.0276   -7.4027 H   0  0  0  0  0  0  0  0  0  0  0  0
   -6.6121   12.3826   -6.8029 H   0  0  0  0  0  0  0  0  0  0  0  0
   -5.1862   14.3796   -6.5144 H   0  0  0  0  0  0  0  0  0  0  0  0
   -4.2604   13.6109   -5.1636 H   0  0  0  0  0  0  0  0  0  0  0  0
   -3.3980   14.2433   -6.6226 H   0  0  0  0  0  0  0  0  0  0  0  0
   -2.3307   12.0648   -7.1304 H   0  0  0  0  0  0  0  0  0  0  0  0
   -2.5753    9.8435   -8.1791 H   0  0  0  0  0  0  0  0  0  0  0  0
   -4.8181    8.8783   -8.5593 H   0  0  0  0  0  0  0  0  0  0  0  0
   -8.9227    8.0762  -11.7362 H   0  0  0  0  0  0  0  0  0  0  0  0
  1  2  1  0
  2  3  2  0
  3  4  1  0
  4  5  2  0
  5  6  1  0
  6  7  2  0
  7  8  1  0
  8  9  1  0
  9 10  1  0
 10 11  1  0
 11 12  1  0
 12 13  1  0
 12 14  1  0
  8 15  2  0
  5 16  1  0
 16 17  1  0
 17 18  1  0
 18 19  2  0
 19 20  1  0
 20 21  1  0
 20 22  2  0
 22 23  1  0
 23 24  2  0
 16 25  2  0
 25 26  1  0
  7  2  1  0
 26  4  1  0
 13  9  1  0
 24 18  1  0
  1 27  1  0
  3 28  1  0
  6 29  1  0
 10 30  1  0
 10 31  1  0
 11 32  1  0
 11 33  1  0
 12 34  1  1
 13 35  1  0
 13 36  1  0
 14 37  1  0
 17 38  1  0
 17 39  1  0
 19 40  1  0
 21 41  1  0
 21 42  1  0
 21 43  1  0
 22 44  1  0
 23 45  1  0
 24 46  1  0
 26 47  1  0
M  END
>  <EmbedRMS>  (1) 
0.04033742494549648

$$$$
1I0
     RDKit          3D

 35 37  0  0  0  0  0  0  0  0999 V2000
   -6.0413   14.4182  -13.0276 O   0  0  0  0  0  0  0  0  0  0  0  0
   -5.6406   13.5291  -12.2292 C   0  0  0  0  0  0  0  0  0  0  0  0
   -6.4397   12.3109  -11.9965 C   0  0  0  0  0  0  0  0  0  0  0  0
   -7.0794   11.6624  -13.0816 C   0  0  0  0  0  0  0  0  0  0  0  0
   -7.7798   10.4571  -12.8778 C   0  0  0  0  0  0  0  0  0  0  0  0
   -6.5407   11.7658  -10.6897 C   0  0  0  0  0  0  0  0  0  0  0  0
   -7.2491   10.5706  -10.5147 C   0  0  0  0  0  0  0  0  0  0  0  0
   -7.8296    9.9360  -11.5788 C   0  0  0  0  0  0  0  0  0  0  0  0
   -8.4219    8.8058  -11.1510 N   0  0  0  0  0  0  0  0  0  0  0  0
   -8.2555    8.6969   -9.8366 N   0  0  0  0  0  0  0  0  0  0  0  0
   -7.5330    9.7578   -9.4090 C   0  0  0  0  0  0  0  0  0  0  0  0
   -7.2444    9.9896   -7.9482 C   0  0  0  0  0  0  0  0  0  0  0  0
   -5.8733   10.5625   -7.7051 C   0  0  0  0  0  0  0  0  0  0  0  0
   -5.7325   11.8236   -7.0998 C   0  0  0  0  0  0  0  0  0  0  0  0
   -4.4590   12.3746   -6.8883 C   0  0  0  0  0  0  0  0  0  0  0  0
   -4.3203   13.7383   -6.2752 C   0  0  0  0  0  0  0  0  0  0  0  0
   -3.3218   11.6641   -7.3036 C   0  0  0  0  0  0  0  0  0  0  0  0
   -3.4559   10.4033   -7.8930 C   0  0  0  0  0  0  0  0  0  0  0  0
   -4.7249    9.8496   -8.0876 C   0  0  0  0  0  0  0  0  0  0  0  0
   -4.3930   13.6930  -11.5654 N   0  0  0  0  0  0  0  0  0  0  0  0
   -7.0115   12.0716  -14.0820 H   0  0  0  0  0  0  0  0  0  0  0  0
   -8.2560    9.9440  -13.7032 H   0  0  0  0  0  0  0  0  0  0  0  0
   -6.0819   12.2632   -9.8475 H   0  0  0  0  0  0  0  0  0  0  0  0
   -8.9478    8.1201  -11.7369 H   0  0  0  0  0  0  0  0  0  0  0  0
   -7.3226    9.0244   -7.4030 H   0  0  0  0  0  0  0  0  0  0  0  0
   -8.0333   10.6585   -7.5423 H   0  0  0  0  0  0  0  0  0  0  0  0
   -6.6121   12.3833   -6.8046 H   0  0  0  0  0  0  0  0  0  0  0  0
   -5.1288   13.9175   -5.5347 H   0  0  0  0  0  0  0  0  0  0  0  0
   -4.3814   14.5084   -7.0723 H   0  0  0  0  0  0  0  0  0  0  0  0
   -3.3462   13.8366   -5.7504 H   0  0  0  0  0  0  0  0  0  0  0  0
   -2.3327   12.0835   -7.1674 H   0  0  0  0  0  0  0  0  0  0  0  0
   -2.5751    9.8562   -8.2036 H   0  0  0  0  0  0  0  0  0  0  0  0
   -4.8152    8.8748   -8.5507 H   0  0  0  0  0  0  0  0  0  0  0  0
   -3.8310   14.5605  -11.7127 H   0  0  0  0  0  0  0  0  0  0  0  0
   -4.0031   12.9434  -10.9517 H   0  0  0  0  0  0  0  0  0  0  0  0
  1  2  2  0
  2  3  1  0
  3  4  2  0
  4  5  1  0
  3  6  1  0
  6  7  2  0
  7  8  1  0
  8  9  1  0
  9 10  1  0
 10 11  2  0
 11 12  1  0
 12 13  1  0
 13 14  2  0
 14 15  1  0
 15 16  1  0
 15 17  2  0
 17 18  1  0
 18 19  2  0
  2 20  1  0
  8  5  2  0
 11  7  1  0
 19 13  1  0
  4 21  1  0
  5 22  1  0
  6 23  1  0
  9 24  1  0
 12 25  1  0
 12 26  1  0
 14 27  1  0
 16 28  1  0
 16 29  1  0
 16 30  1  0
 17 31  1  0
 18 32  1  0
 19 33  1  0
 20 34  1  0
 20 35  1  0
M  END
>  <EmbedRMS>  (2) 
0.044815246638197144

$$$$
1I1
     RDKit          3D

 42 44  0  0  0  0  0  0  0  0999 V2000
   -4.7059    9.7695   -8.2966 C   0  0  0  0  0  0  0  0  0  0  0  0
   -5.9484    9.2038   -7.5923 C   0  0  0  0  0  0  0  0  0  0  0  0
   -5.7488    9.2394   -6.0722 C   0  0  0  0  0  0  0  0  0  0  0  0
   -7.2240    9.9803   -7.9785 C   0  0  0  0  0  0  0  0  0  0  0  0
   -7.5910    9.7671   -9.4209 C   0  0  0  0  0  0  0  0  0  0  0  0
   -8.2614    8.6773   -9.8584 N   0  0  0  0  0  0  0  0  0  0  0  0
   -8.4161    8.7882  -11.1752 N   0  0  0  0  0  0  0  0  0  0  0  0
   -7.8433    9.9331  -11.5931 C   0  0  0  0  0  0  0  0  0  0  0  0
   -7.3039   10.5795  -10.5178 C   0  0  0  0  0  0  0  0  0  0  0  0
   -6.6292   11.7915  -10.6653 C   0  0  0  0  0  0  0  0  0  0  0  0
   -6.4740   12.3262  -11.9704 C   0  0  0  0  0  0  0  0  0  0  0  0
   -5.6708   13.5486  -12.1763 C   0  0  0  0  0  0  0  0  0  0  0  0
   -4.3860   13.6839  -11.5593 N   0  0  0  0  0  0  0  0  0  0  0  0
   -3.5640   14.8715  -11.7048 C   0  0  0  0  0  0  0  0  0  0  0  0
   -2.2335   14.5170  -11.0551 C   0  0  0  0  0  0  0  0  0  0  0  0
   -2.1961   12.9878  -11.0319 C   0  0  1  0  0  0  0  0  0  0  0  0
   -3.6529   12.5736  -10.9706 C   0  0  0  0  0  0  0  0  0  0  0  0
   -1.6389   12.4994  -12.2243 O   0  0  0  0  0  0  0  0  0  0  0  0
   -6.1080   14.4699  -12.9168 O   0  0  0  0  0  0  0  0  0  0  0  0
   -7.0614   11.6626  -13.0770 C   0  0  0  0  0  0  0  0  0  0  0  0
   -7.7610   10.4520  -12.8919 C   0  0  0  0  0  0  0  0  0  0  0  0
   -4.5666   10.8418   -8.0418 H   0  0  0  0  0  0  0  0  0  0  0  0
   -4.8009    9.6687   -9.3978 H   0  0  0  0  0  0  0  0  0  0  0  0
   -3.7994    9.2081   -7.9851 H   0  0  0  0  0  0  0  0  0  0  0  0
   -6.0688    8.1389   -7.8932 H   0  0  0  0  0  0  0  0  0  0  0  0
   -6.6234    8.7855   -5.5592 H   0  0  0  0  0  0  0  0  0  0  0  0
   -5.6274   10.2856   -5.7173 H   0  0  0  0  0  0  0  0  0  0  0  0
   -4.8459    8.6571   -5.7890 H   0  0  0  0  0  0  0  0  0  0  0  0
   -8.0760    9.6327   -7.3546 H   0  0  0  0  0  0  0  0  0  0  0  0
   -7.0894   11.0657   -7.7796 H   0  0  0  0  0  0  0  0  0  0  0  0
   -8.9030    8.0837  -11.7724 H   0  0  0  0  0  0  0  0  0  0  0  0
   -6.2383   12.3025   -9.7962 H   0  0  0  0  0  0  0  0  0  0  0  0
   -3.4154   15.0974  -12.7834 H   0  0  0  0  0  0  0  0  0  0  0  0
   -4.0386   15.7374  -11.1947 H   0  0  0  0  0  0  0  0  0  0  0  0
   -2.2155   14.9012  -10.0112 H   0  0  0  0  0  0  0  0  0  0  0  0
   -1.3764   14.9495  -11.6158 H   0  0  0  0  0  0  0  0  0  0  0  0
   -1.6358   12.6029  -10.1481 H   0  0  0  0  0  0  0  0  0  0  0  0
   -3.9559   12.4443   -9.9109 H   0  0  0  0  0  0  0  0  0  0  0  0
   -3.8226   11.6294  -11.5343 H   0  0  0  0  0  0  0  0  0  0  0  0
   -0.6546   12.5923  -12.1344 H   0  0  0  0  0  0  0  0  0  0  0  0
   -6.9558   12.0663  -14.0763 H   0  0  0  0  0  0  0  0  0  0  0  0
   -8.1991    9.9278  -13.7312 H   0  0  0  0  0  0  0  0  0  0  0  0
  1  2  1  0
  2  3  1  0
  2  4  1  0
  4  5  1  0
  5  6  2  0
  6  7  1  0
  7  8  1  0
  8  9  2  0
  9 10  1  0
 10 11  2  0
 11 12  1  0
 12 13  1  0
 13 14  1  0
 14 15  1  0
 15 16  1  0
 16 17  1  0
 16 18  1  0
 12 19  2  0
 11 20  1  0
 20 21  2  0
  9  5  1  0
 21  8  1  0
 17 13  1  0
  1 22  1  0
  1 23  1  0
  1 24  1  0
  2 25  1  0
  3 26  1  0
  3 27  1  0
  3 28  1  0
  4 29  1  0
  4 30  1  0
  7 31  1  0
 10 32  1  0
 14 33  1  0
 14 34  1  0
 15 35  1  0
 15 36  1  0
 16 37  1  1
 17 38  1  0
 17 39  1  0
 18 40  1  0
 20 41  1  0
 21 42  1  0
M  END
>  <EmbedRMS>  (3) 
0.04893187641186228

$$$$
1PA
     RDKit          3D

 31 32  0  0  0  0  0  0  0  0999 V2000
   -4.7674    9.5652   -7.9353 C   0  0  0  0  0  0  0  0  0  0  0  0
   -5.8101   10.6713   -7.7548 C   0  0  0  0  0  0  0  0  0  0  0  0
   -5.7115   11.3275   -6.3755 C   0  0  0  0  0  0  0  0  0  0  0  0
   -7.2507   10.1652   -8.0146 C   0  0  0  0  0  0  0  0  0  0  0  0
   -7.5463    9.8620   -9.4621 C   0  0  0  0  0  0  0  0  0  0  0  0
   -8.2379    8.7655   -9.8552 N   0  0  0  0  0  0  0  0  0  0  0  0
   -8.3999    8.8253  -11.1746 N   0  0  0  0  0  0  0  0  0  0  0  0
   -7.8314    9.9550  -11.6380 C   0  0  0  0  0  0  0  0  0  0  0  0
   -7.2880   10.6459  -10.5912 C   0  0  0  0  0  0  0  0  0  0  0  0
   -6.6480   11.8735  -10.8002 C   0  0  0  0  0  0  0  0  0  0  0  0
   -6.4765   12.3382  -12.1178 C   0  0  0  0  0  0  0  0  0  0  0  0
   -7.0683   11.6343  -13.1935 C   0  0  0  0  0  0  0  0  0  0  0  0
   -7.7684   10.4314  -12.9555 C   0  0  0  0  0  0  0  0  0  0  0  0
   -5.6535   13.5389  -12.3449 C   0  0  0  0  0  0  0  0  0  0  0  0
   -4.3856   13.6550  -11.7068 N   0  0  0  0  0  0  0  0  0  0  0  0
   -6.0650   14.4676  -13.0872 O   0  0  0  0  0  0  0  0  0  0  0  0
   -3.7451    9.9670   -7.7678 H   0  0  0  0  0  0  0  0  0  0  0  0
   -4.8143    9.1580   -8.9678 H   0  0  0  0  0  0  0  0  0  0  0  0
   -4.9498    8.7394   -7.2148 H   0  0  0  0  0  0  0  0  0  0  0  0
   -5.5224   11.4607   -8.4531 H   0  0  0  0  0  0  0  0  0  0  0  0
   -5.9639   10.5943   -5.5797 H   0  0  0  0  0  0  0  0  0  0  0  0
   -6.4099   12.1890   -6.3062 H   0  0  0  0  0  0  0  0  0  0  0  0
   -4.6811   11.7044   -6.1995 H   0  0  0  0  0  0  0  0  0  0  0  0
   -7.9790   10.9407   -7.6930 H   0  0  0  0  0  0  0  0  0  0  0  0
   -7.4426    9.2593   -7.3990 H   0  0  0  0  0  0  0  0  0  0  0  0
   -8.8985    8.1034  -11.7404 H   0  0  0  0  0  0  0  0  0  0  0  0
   -6.3339   12.5087   -9.9918 H   0  0  0  0  0  0  0  0  0  0  0  0
   -6.9631   11.9972  -14.2083 H   0  0  0  0  0  0  0  0  0  0  0  0
   -8.2126    9.8758  -13.7710 H   0  0  0  0  0  0  0  0  0  0  0  0
   -4.0096   12.8832  -11.1121 H   0  0  0  0  0  0  0  0  0  0  0  0
   -3.8042   14.5112  -11.8455 H   0  0  0  0  0  0  0  0  0  0  0  0
  1  2  1  0
  2  3  1  0
  2  4  1  0
  4  5  1  0
  5  6  2  0
  6  7  1  0
  7  8  1  0
  8  9  2  0
  9 10  1  0
 10 11  2  0
 11 12  1  0
 12 13  2  0
 11 14  1  0
 14 15  1  0
 14 16  2  0
  9  5  1  0
 13  8  1  0
  1 17  1  0
  1 18  1  0
  1 19  1  0
  2 20  1  0
  3 21  1  0
  3 22  1  0
  3 23  1  0
  4 24  1  0
  4 25  1  0
  7 26  1  0
 10 27  1  0
 12 28  1  0
 13 29  1  0
 15 30  1  0
 15 31  1  0
M  END
>  <EmbedRMS>  (4) 
0.06091610408555537

$$$$
