6PB
     RDKit          3D

 55 58  0  0  0  0  0  0  0  0999 V2000
   -3.5845   14.8853  -11.5395 C   0  0  0  0  0  0  0  0  0  0  0  0
   -4.3977   13.6837  -11.4662 N   0  0  0  0  0  0  0  0  0  0  0  0
   -5.6094   13.5270  -12.2072 C   0  0  0  0  0  0  0  0  0  0  0  0
   -6.4083   12.3032  -12.0170 C   0  0  0  0  0  0  0  0  0  0  0  0
   -6.5409   11.7484  -10.7179 C   0  0  0  0  0  0  0  0  0  0  0  0
   -7.2483   10.5517  -10.5694 C   0  0  0  0  0  0  0  0  0  0  0  0
   -7.8038    9.9262  -11.6519 C   0  0  0  0  0  0  0  0  0  0  0  0
   -8.4033    8.7919  -11.2482 N   0  0  0  0  0  0  0  0  0  0  0  0
   -8.2645    8.6710   -9.9319 N   0  0  0  0  0  0  0  0  0  0  0  0
   -7.5559    9.7295   -9.4774 C   0  0  0  0  0  0  0  0  0  0  0  0
   -7.3089    9.9482   -8.0072 C   0  0  0  0  0  0  0  0  0  0  0  0
   -5.9529   10.5333   -7.7219 C   0  0  0  0  0  0  0  0  0  0  0  0
   -4.7874    9.8132   -8.0323 C   0  0  0  0  0  0  0  0  0  0  0  0
   -3.5284   10.3718   -7.7878 C   0  0  0  0  0  0  0  0  0  0  0  0
   -3.4223   11.6588   -7.2425 C   0  0  0  0  0  0  0  0  0  0  0  0
   -4.5835   12.3802   -6.9338 C   0  0  0  0  0  0  0  0  0  0  0  0
   -5.8416   11.8141   -7.1547 C   0  0  0  0  0  0  0  0  0  0  0  0
   -2.1050   12.2711   -7.0404 C   0  0  0  0  0  0  0  0  0  0  0  0
   -1.1112   11.8835   -6.1653 C   0  0  0  0  0  0  0  0  0  0  0  0
   -0.0735   12.7338   -6.3315 N   0  0  0  0  0  0  0  0  0  0  0  0
   -0.3448   13.5951   -7.3015 N   0  0  0  0  0  0  0  0  0  0  0  0
   -1.5922   13.3490   -7.7335 C   0  0  0  0  0  0  0  0  0  0  0  0
    1.2471   12.6353   -5.7091 C   0  0  0  0  0  0  0  0  0  0  0  0
    1.6640   13.8815   -4.8455 C   0  0  0  0  0  0  0  0  0  0  0  0
    0.9270   15.1870   -5.2060 C   0  0  0  0  0  0  0  0  0  0  0  0
    1.3903   13.6220   -3.4901 O   0  0  0  0  0  0  0  0  0  0  0  0
    3.1793   14.1291   -5.0166 C   0  0  0  0  0  0  0  0  0  0  0  0
   -7.7259   10.4575  -12.9450 C   0  0  0  0  0  0  0  0  0  0  0  0
   -7.0188   11.6628  -13.1234 C   0  0  0  0  0  0  0  0  0  0  0  0
   -5.9817   14.4161  -13.0215 O   0  0  0  0  0  0  0  0  0  0  0  0
   -3.2617   15.0583  -12.5877 H   0  0  0  0  0  0  0  0  0  0  0  0
   -2.6831   14.7729  -10.9010 H   0  0  0  0  0  0  0  0  0  0  0  0
   -4.1714   15.7577  -11.1828 H   0  0  0  0  0  0  0  0  0  0  0  0
   -4.0509   12.8984  -10.8698 H   0  0  0  0  0  0  0  0  0  0  0  0
   -6.1107   12.2424   -9.8596 H   0  0  0  0  0  0  0  0  0  0  0  0
   -8.9141    8.1101  -11.8518 H   0  0  0  0  0  0  0  0  0  0  0  0
   -8.1152   10.6040   -7.6142 H   0  0  0  0  0  0  0  0  0  0  0  0
   -7.3914    8.9762   -7.4746 H   0  0  0  0  0  0  0  0  0  0  0  0
   -4.8557    8.8242   -8.4682 H   0  0  0  0  0  0  0  0  0  0  0  0
   -2.6376    9.8093   -8.0397 H   0  0  0  0  0  0  0  0  0  0  0  0
   -4.5139   13.3787   -6.5195 H   0  0  0  0  0  0  0  0  0  0  0  0
   -6.7271   12.3875   -6.9103 H   0  0  0  0  0  0  0  0  0  0  0  0
   -1.1354   11.0499   -5.4751 H   0  0  0  0  0  0  0  0  0  0  0  0
   -2.0865   13.9015   -8.5212 H   0  0  0  0  0  0  0  0  0  0  0  0
    1.9811   12.4799   -6.5305 H   0  0  0  0  0  0  0  0  0  0  0  0
    1.2998   11.7109   -5.0926 H   0  0  0  0  0  0  0  0  0  0  0  0
    1.1270   15.4777   -6.2594 H   0  0  0  0  0  0  0  0  0  0  0  0
   -0.1673   15.0738   -5.0519 H   0  0  0  0  0  0  0  0  0  0  0  0
    1.2701   16.0161   -4.5500 H   0  0  0  0  0  0  0  0  0  0  0  0
    1.9523   12.8569   -3.1973 H   0  0  0  0  0  0  0  0  0  0  0  0
    3.4152   14.4195   -6.0634 H   0  0  0  0  0  0  0  0  0  0  0  0
    3.7551   13.2111   -4.7696 H   0  0  0  0  0  0  0  0  0  0  0  0
    3.5193   14.9418   -4.3390 H   0  0  0  0  0  0  0  0  0  0  0  0
   -8.1825    9.9506  -13.7851 H   0  0  0  0  0  0  0  0  0  0  0  0
   -6.9267   12.0805  -14.1182 H   0  0  0  0  0  0  0  0  0  0  0  0
  1  2  1  0
  2  3  1  0
  3  4  1  0
  4  5  2  0
  5  6  1  0
  6  7  2  0
  7  8  1  0
  8  9  1  0
  9 10  2  0
 10 11  1  0
 11 12  1  0
 12 13  2  0
 13 14  1  0
 14 15  2  0
 15 16  1  0
 16 17  2  0
 15 18  1  0
 18 19  2  0
 19 20  1  0
 20 21  1  0
 21 22  2  0
 20 23  1  0
 23 24  1  0
 24 25  1  0
 24 26  1  0
 24 27  1  0
  7 28  1  0
 28 29  2  0
  3 30  2  0
 29  4  1  0
 10  6  1  0
 17 12  1  0
 22 18  1  0
  1 31  1  0
  1 32  1  0
  1 33  1  0
  2 34  1  0
  5 35  1  0
  8 36  1  0
 11 37  1  0
 11 38  1  0
 13 39  1  0
 14 40  1  0
 16 41  1  0
 17 42  1  0
 19 43  1  0
 22 44  1  0
 23 45  1  0
 23 46  1  0
 25 47  1  0
 25 48  1  0
 25 49  1  0
 26 50  1  0
 27 51  1  0
 27 52  1  0
 27 53  1  0
 28 54  1  0
 29 55  1  0
M  END
>  <EmbedRMS>  (1) 
0.04421172073674505

$$$$
6I0
     RDKit          3D

 46 49  0  0  0  0  0  0  0  0999 V2000
   -4.3183   13.7329   -6.2654 C   0  0  0  0  0  0  0  0  0  0  0  0
   -4.4603   12.3843   -6.9106 C   0  0  0  0  0  0  0  0  0  0  0  0
   -5.7337   11.8256   -7.1064 C   0  0  0  0  0  0  0  0  0  0  0  0
   -5.8767   10.5661   -7.7159 C   0  0  0  0  0  0  0  0  0  0  0  0
   -7.2519    9.9901   -7.9497 C   0  0  0  0  0  0  0  0  0  0  0  0
   -7.5602    9.7563   -9.4079 C   0  0  0  0  0  0  0  0  0  0  0  0
   -8.2539    8.6767   -9.8367 N   0  0  0  0  0  0  0  0  0  0  0  0
   -8.4200    8.7806  -11.1526 N   0  0  0  0  0  0  0  0  0  0  0  0
   -7.8500    9.9225  -11.5810 C   0  0  0  0  0  0  0  0  0  0  0  0
   -7.3015   10.5739  -10.5125 C   0  0  0  0  0  0  0  0  0  0  0  0
   -6.6419   11.7917  -10.6752 C   0  0  0  0  0  0  0  0  0  0  0  0
   -6.4898   12.3182  -11.9818 C   0  0  0  0  0  0  0  0  0  0  0  0
   -5.6785   13.5398  -12.1773 C   0  0  0  0  0  0  0  0  0  0  0  0
   -4.3890   13.6564  -11.5633 N   0  0  0  0  0  0  0  0  0  0  0  0
   -3.5655   14.8464  -11.6710 C   0  0  0  0  0  0  0  0  0  0  0  0
   -2.2369   14.4732  -11.0243 C   0  0  0  0  0  0  0  0  0  0  0  0
   -2.2065   12.9443  -11.0131 C   0  0  1  0  0  0  0  0  0  0  0  0
   -3.6680   12.5380  -10.9765 C   0  0  0  0  0  0  0  0  0  0  0  0
   -1.6223   12.4686  -12.1988 O   0  0  0  0  0  0  0  0  0  0  0  0
   -6.1222   14.4863  -12.8810 O   0  0  0  0  0  0  0  0  0  0  0  0
   -7.0843   11.6484  -13.0826 C   0  0  0  0  0  0  0  0  0  0  0  0
   -7.7828   10.4371  -12.8837 C   0  0  0  0  0  0  0  0  0  0  0  0
   -4.7273    9.8518   -8.0944 C   0  0  0  0  0  0  0  0  0  0  0  0
   -3.4565   10.3970   -7.8817 C   0  0  0  0  0  0  0  0  0  0  0  0
   -3.3214   11.6557   -7.2875 C   0  0  0  0  0  0  0  0  0  0  0  0
   -5.1870   14.3790   -6.5140 H   0  0  0  0  0  0  0  0  0  0  0  0
   -3.3988   14.2434   -6.6232 H   0  0  0  0  0  0  0  0  0  0  0  0
   -4.2601   13.6107   -5.1637 H   0  0  0  0  0  0  0  0  0  0  0  0
   -6.6126   12.3816   -6.8024 H   0  0  0  0  0  0  0  0  0  0  0  0
   -7.3244    9.0253   -7.4032 H   0  0  0  0  0  0  0  0  0  0  0  0
   -8.0372   10.6578   -7.5353 H   0  0  0  0  0  0  0  0  0  0  0  0
   -8.9207    8.0779  -11.7404 H   0  0  0  0  0  0  0  0  0  0  0  0
   -6.2598   12.3223   -9.8164 H   0  0  0  0  0  0  0  0  0  0  0  0
   -3.4119   15.1020  -12.7422 H   0  0  0  0  0  0  0  0  0  0  0  0
   -4.0426   15.6979  -11.1395 H   0  0  0  0  0  0  0  0  0  0  0  0
   -1.3756   14.9021  -11.5814 H   0  0  0  0  0  0  0  0  0  0  0  0
   -2.2159   14.8494   -9.9774 H   0  0  0  0  0  0  0  0  0  0  0  0
   -1.6533   12.5679  -10.1208 H   0  0  0  0  0  0  0  0  0  0  0  0
   -3.8382   11.6002  -11.5503 H   0  0  0  0  0  0  0  0  0  0  0  0
   -3.9872   12.4023   -9.9249 H   0  0  0  0  0  0  0  0  0  0  0  0
   -1.3916   11.5161  -12.0393 H   0  0  0  0  0  0  0  0  0  0  0  0
   -6.9849   12.0478  -14.0841 H   0  0  0  0  0  0  0  0  0  0  0  0
   -8.2286    9.9085  -13.7161 H   0  0  0  0  0  0  0  0  0  0  0  0
   -4.8179    8.8780   -8.5595 H   0  0  0  0  0  0  0  0  0  0  0  0
   -2.5753    9.8437   -8.1796 H   0  0  0  0  0  0  0  0  0  0  0  0
   -2.3310   12.0649   -7.1306 H   0  0  0  0  0  0  0  0  0  0  0  0
  1  2  1  0
  2  3  2  0
  3  4  1  0
  4  5  1  0
  5  6  1  0
  6  7  2  0
  7  8  1  0
  8  9  1  0
  9 10  2  0
 10 11  1  0
 11 12  2  0
 12 13  1  0
 13 14  1  0
 14 15  1  0
 15 16  1  0
 16 17  1  0
 17 18  1  0
 17 19  1  0
 13 20  2  0
 12 21  1  0
 21 22  2  0
  4 23  2  0
 23 24  1  0
 24 25  2  0
 25  2  1  0
 10  6  1  0
 22  9  1  0
 18 14  1  0
  1 26  1  0
  1 27  1  0
  1 28  1  0
  3 29  1  0
  5 30  1  0
  5 31  1  0
  8 32  1  0
 11 33  1  0
 15 34  1  0
 15 35  1  0
 16 36  1  0
 16 37  1  0
 17 38  1  1
 18 39  1  0
 18 40  1  0
 19 41  1  0
 21 42  1  0
 22 43  1  0
 23 44  1  0
 24 45  1  0
 25 46  1  0
M  END
>  <EmbedRMS>  (2) 
0.042378454748544084

$$$$
6I1
     RDKit          3D

 64 68  0  0  0  0  0  0  0  0999 V2000
    2.2508   10.9530   -7.1236 C   0  0  0  0  0  0  0  0  0  0  0  0
    2.4501   12.3098   -6.4276 C   0  0  0  0  0  0  0  0  0  0  0  0
    2.5244   13.3054   -7.4206 O   0  0  0  0  0  0  0  0  0  0  0  0
    1.2721   12.5987   -5.4623 C   0  0  0  0  0  0  0  0  0  0  0  0
    0.0054   12.7068   -6.1825 N   0  0  0  0  0  0  0  0  0  0  0  0
   -0.9585   11.7631   -6.2554 C   0  0  0  0  0  0  0  0  0  0  0  0
   -2.0139   12.2964   -6.9645 C   0  0  0  0  0  0  0  0  0  0  0  0
   -1.6126   13.5799   -7.2984 C   0  0  0  0  0  0  0  0  0  0  0  0
   -0.3750   13.8036   -6.8198 N   0  0  0  0  0  0  0  0  0  0  0  0
   -3.3349   11.6852   -7.2158 C   0  0  0  0  0  0  0  0  0  0  0  0
   -3.4462   10.4009   -7.7755 C   0  0  0  0  0  0  0  0  0  0  0  0
   -4.7103    9.8471   -8.0325 C   0  0  0  0  0  0  0  0  0  0  0  0
   -5.8781   10.5616   -7.7105 C   0  0  0  0  0  0  0  0  0  0  0  0
   -7.2455    9.9699   -7.9577 C   0  0  0  0  0  0  0  0  0  0  0  0
   -7.5529    9.7524   -9.4177 C   0  0  0  0  0  0  0  0  0  0  0  0
   -8.2511    8.6786   -9.8546 N   0  0  0  0  0  0  0  0  0  0  0  0
   -8.4152    8.7918  -11.1694 N   0  0  0  0  0  0  0  0  0  0  0  0
   -7.8395    9.9336  -11.5886 C   0  0  0  0  0  0  0  0  0  0  0  0
   -7.2912   10.5785  -10.5157 C   0  0  0  0  0  0  0  0  0  0  0  0
   -6.6296   11.7973  -10.6720 C   0  0  0  0  0  0  0  0  0  0  0  0
   -6.4753   12.3275  -11.9784 C   0  0  0  0  0  0  0  0  0  0  0  0
   -5.6715   13.5526  -12.1770 C   0  0  0  0  0  0  0  0  0  0  0  0
   -4.3863   13.6858  -11.5607 N   0  0  0  0  0  0  0  0  0  0  0  0
   -3.5650   14.8733  -11.7089 C   0  0  0  0  0  0  0  0  0  0  0  0
   -2.2300   14.5191  -11.0705 C   0  0  0  0  0  0  0  0  0  0  0  0
   -2.1964   12.9898  -11.0327 C   0  0  1  0  0  0  0  0  0  0  0  0
   -3.6536   12.5765  -10.9709 C   0  0  0  0  0  0  0  0  0  0  0  0
   -1.6382   12.4929  -12.2211 O   0  0  0  0  0  0  0  0  0  0  0  0
   -6.1094   14.4789  -12.9108 O   0  0  0  0  0  0  0  0  0  0  0  0
   -7.0611   11.6578  -13.0863 C   0  0  0  0  0  0  0  0  0  0  0  0
   -6.9267   12.1794  -14.3726 O   0  0  0  0  0  0  0  0  0  0  0  0
   -7.7656   10.4493  -12.8879 C   0  0  0  0  0  0  0  0  0  0  0  0
   -5.7605   11.8348   -7.1295 C   0  0  0  0  0  0  0  0  0  0  0  0
   -4.5014   12.3977   -6.9014 C   0  0  0  0  0  0  0  0  0  0  0  0
    3.7712   12.2756   -5.6353 C   0  0  0  0  0  0  0  0  0  0  0  0
    2.1359   10.1386   -6.3760 H   0  0  0  0  0  0  0  0  0  0  0  0
    1.3481   10.9734   -7.7703 H   0  0  0  0  0  0  0  0  0  0  0  0
    3.1230   10.7190   -7.7713 H   0  0  0  0  0  0  0  0  0  0  0  0
    2.6487   14.1805   -6.9671 H   0  0  0  0  0  0  0  0  0  0  0  0
    1.4554   13.5498   -4.9155 H   0  0  0  0  0  0  0  0  0  0  0  0
    1.2013   11.7936   -4.6970 H   0  0  0  0  0  0  0  0  0  0  0  0
   -0.9113   10.7849   -5.7940 H   0  0  0  0  0  0  0  0  0  0  0  0
   -2.2039   14.3166   -7.8211 H   0  0  0  0  0  0  0  0  0  0  0  0
   -2.5566    9.8377   -8.0290 H   0  0  0  0  0  0  0  0  0  0  0  0
   -4.7797    8.8613   -8.4753 H   0  0  0  0  0  0  0  0  0  0  0  0
   -8.0402   10.6197   -7.5326 H   0  0  0  0  0  0  0  0  0  0  0  0
   -7.3061    8.9965   -7.4251 H   0  0  0  0  0  0  0  0  0  0  0  0
   -8.9167    8.0944  -11.7628 H   0  0  0  0  0  0  0  0  0  0  0  0
   -6.2455   12.3243   -9.8123 H   0  0  0  0  0  0  0  0  0  0  0  0
   -4.0368   15.7378  -11.1939 H   0  0  0  0  0  0  0  0  0  0  0  0
   -3.4242   15.1019  -12.7881 H   0  0  0  0  0  0  0  0  0  0  0  0
   -2.1962   14.9233  -10.0383 H   0  0  0  0  0  0  0  0  0  0  0  0
   -1.3785   14.9415  -11.6473 H   0  0  0  0  0  0  0  0  0  0  0  0
   -1.6376   12.6106  -10.1458 H   0  0  0  0  0  0  0  0  0  0  0  0
   -3.8241   11.6315  -11.5331 H   0  0  0  0  0  0  0  0  0  0  0  0
   -3.9594   12.4492   -9.9131 H   0  0  0  0  0  0  0  0  0  0  0  0
   -0.6535   12.5774  -12.1272 H   0  0  0  0  0  0  0  0  0  0  0  0
   -7.3306   11.7151  -15.1776 H   0  0  0  0  0  0  0  0  0  0  0  0
   -8.2127    9.9183  -13.7184 H   0  0  0  0  0  0  0  0  0  0  0  0
   -6.6442   12.4041   -6.8696 H   0  0  0  0  0  0  0  0  0  0  0  0
   -4.4370   13.3877   -6.4666 H   0  0  0  0  0  0  0  0  0  0  0  0
    3.7529   11.4642   -4.8759 H   0  0  0  0  0  0  0  0  0  0  0  0
    3.9378   13.2416   -5.1121 H   0  0  0  0  0  0  0  0  0  0  0  0
    4.6285   12.1018   -6.3205 H   0  0  0  0  0  0  0  0  0  0  0  0
  1  2  1  0
  2  3  1  0
  2  4  1  0
  4  5  1  0
  5  6  1  0
  6  7  2  0
  7  8  1  0
  8  9  2  0
  7 10  1  0
 10 11  2  0
 11 12  1  0
 12 13  2  0
 13 14  1  0
 14 15  1  0
 15 16  2  0
 16 17  1  0
 17 18  1  0
 18 19  2  0
 19 20  1  0
 20 21  2  0
 21 22  1  0
 22 23  1  0
 23 24  1  0
 24 25  1  0
 25 26  1  0
 26 27  1  0
 26 28  1  0
 22 29  2  0
 21 30  1  0
 30 31  1  0
 30 32  2  0
 13 33  1  0
 33 34  2  0
  2 35  1  0
  9  5  1  0
 34 10  1  0
 19 15  1  0
 32 18  1  0
 27 23  1  0
  1 36  1  0
  1 37  1  0
  1 38  1  0
  3 39  1  0
  4 40  1  0
  4 41  1  0
  6 42  1  0
  8 43  1  0
 11 44  1  0
 12 45  1  0
 14 46  1  0
 14 47  1  0
 17 48  1  0
 20 49  1  0
 24 50  1  0
 24 51  1  0
 25 52  1  0
 25 53  1  0
 26 54  1  1
 27 55  1  0
 27 56  1  0
 28 57  1  0
 31 58  1  0
 32 59  1  0
 33 60  1  0
 34 61  1  0
 35 62  1  0
 35 63  1  0
 35 64  1  0
M  END
>  <EmbedRMS>  (3) 
0.04041765638915394

$$$$
6PA
     RDKit          3D

 47 50  0  0  0  0  0  0  0  0999 V2000
   -4.3178   13.7332   -6.2652 C   0  0  0  0  0  0  0  0  0  0  0  0
   -4.4598   12.3848   -6.9107 C   0  0  0  0  0  0  0  0  0  0  0  0
   -5.7331   11.8266   -7.1070 C   0  0  0  0  0  0  0  0  0  0  0  0
   -5.8763   10.5674   -7.7166 C   0  0  0  0  0  0  0  0  0  0  0  0
   -7.2514    9.9926   -7.9509 C   0  0  0  0  0  0  0  0  0  0  0  0
   -7.5589    9.7586   -9.4089 C   0  0  0  0  0  0  0  0  0  0  0  0
   -8.2532    8.6785   -9.8352 N   0  0  0  0  0  0  0  0  0  0  0  0
   -8.4210    8.7813  -11.1505 N   0  0  0  0  0  0  0  0  0  0  0  0
   -7.8514    9.9227  -11.5804 C   0  0  0  0  0  0  0  0  0  0  0  0
   -7.7899   10.4340  -12.8825 C   0  0  0  0  0  0  0  0  0  0  0  0
   -7.0878   11.6404  -13.0993 C   0  0  0  0  0  0  0  0  0  0  0  0
   -6.9867   12.1191  -14.4080 O   0  0  0  0  0  0  0  0  0  0  0  0
   -6.4887   12.3189  -11.9944 C   0  0  0  0  0  0  0  0  0  0  0  0
   -6.6419   11.7932  -10.6844 C   0  0  0  0  0  0  0  0  0  0  0  0
   -7.3006   10.5754  -10.5157 C   0  0  0  0  0  0  0  0  0  0  0  0
   -5.6784   13.5470  -12.1721 C   0  0  0  0  0  0  0  0  0  0  0  0
   -4.3868   13.6563  -11.5627 N   0  0  0  0  0  0  0  0  0  0  0  0
   -3.5630   14.8462  -11.6686 C   0  0  0  0  0  0  0  0  0  0  0  0
   -2.2351   14.4716  -11.0227 C   0  0  0  0  0  0  0  0  0  0  0  0
   -2.2058   12.9426  -11.0131 C   0  0  1  0  0  0  0  0  0  0  0  0
   -3.6674   12.5366  -10.9778 C   0  0  0  0  0  0  0  0  0  0  0  0
   -1.6214   12.4681  -12.1992 O   0  0  0  0  0  0  0  0  0  0  0  0
   -6.1284   14.5104  -12.8485 O   0  0  0  0  0  0  0  0  0  0  0  0
   -4.7272    9.8523   -8.0946 C   0  0  0  0  0  0  0  0  0  0  0  0
   -3.4563   10.3971   -7.8816 C   0  0  0  0  0  0  0  0  0  0  0  0
   -3.3209   11.6558   -7.2874 C   0  0  0  0  0  0  0  0  0  0  0  0
   -4.2613   13.6110   -5.1635 H   0  0  0  0  0  0  0  0  0  0  0  0
   -5.1857   14.3800   -6.5151 H   0  0  0  0  0  0  0  0  0  0  0  0
   -3.3974   14.2430   -6.6218 H   0  0  0  0  0  0  0  0  0  0  0  0
   -6.6119   12.3829   -6.8032 H   0  0  0  0  0  0  0  0  0  0  0  0
   -7.3249    9.0282   -7.4038 H   0  0  0  0  0  0  0  0  0  0  0  0
   -8.0366   10.6611   -7.5372 H   0  0  0  0  0  0  0  0  0  0  0  0
   -8.9231    8.0785  -11.7370 H   0  0  0  0  0  0  0  0  0  0  0  0
   -8.2427    9.8987  -13.7073 H   0  0  0  0  0  0  0  0  0  0  0  0
   -6.4268   12.9200  -14.6663 H   0  0  0  0  0  0  0  0  0  0  0  0
   -6.2605   12.3256   -9.8261 H   0  0  0  0  0  0  0  0  0  0  0  0
   -3.4095   15.1034  -12.7394 H   0  0  0  0  0  0  0  0  0  0  0  0
   -4.0397   15.6971  -11.1356 H   0  0  0  0  0  0  0  0  0  0  0  0
   -2.2136   14.8466   -9.9754 H   0  0  0  0  0  0  0  0  0  0  0  0
   -1.3735   14.9006  -11.5794 H   0  0  0  0  0  0  0  0  0  0  0  0
   -1.6530   12.5648  -10.1211 H   0  0  0  0  0  0  0  0  0  0  0  0
   -3.8380   11.6002  -11.5537 H   0  0  0  0  0  0  0  0  0  0  0  0
   -3.9872   12.3990   -9.9267 H   0  0  0  0  0  0  0  0  0  0  0  0
   -1.3908   11.5155  -12.0407 H   0  0  0  0  0  0  0  0  0  0  0  0
   -4.8180    8.8786   -8.5596 H   0  0  0  0  0  0  0  0  0  0  0  0
   -2.5752    9.8435   -8.1791 H   0  0  0  0  0  0  0  0  0  0  0  0
   -2.3305   12.0647   -7.1301 H   0  0  0  0  0  0  0  0  0  0  0  0
  1  2  1  0
  2  3  2  0
  3  4  1  0
  4  5  1  0
  5  6  1  0
  6  7  2  0
  7  8  1  0
  8  9  1  0
  9 10  2  0
 10 11  1  0
 11 12  1  0
 11 13  2  0
 13 14  1  0
 14 15  2  0
 13 16  1  0
 16 17  1  0
 17 18  1  0
 18 19  1  0
 19 20  1  0
 20 21  1  0
 20 22  1  0
 16 23  2  0
  4 24  2  0
 24 25  1  0
 25 26  2  0
 26  2  1  0
 15  6  1  0
 15  9  1  0
 21 17  1  0
  1 27  1  0
  1 28  1  0
  1 29  1  0
  3 30  1  0
  5 31  1  0
  5 32  1  0
  8 33  1  0
 10 34  1  0
 12 35  1  0
 14 36  1  0
 18 37  1  0
 18 38  1  0
 19 39  1  0
 19 40  1  0
 20 41  1  1
 21 42  1  0
 21 43  1  0
 22 44  1  0
 24 45  1  0
 25 46  1  0
 26 47  1  0
M  END
>  <EmbedRMS>  (4) 
0.04013014913694413

$$$$
