7PB
     RDKit          3D

 38 40  0  0  0  0  0  0  0  0999 V2000
   -3.5671   14.8472  -11.6590 C   0  0  0  0  0  0  0  0  0  0  0  0
   -4.3866   13.6530  -11.5508 N   0  0  0  0  0  0  0  0  0  0  0  0
   -5.6383   13.5219  -12.2248 C   0  0  0  0  0  0  0  0  0  0  0  0
   -6.4474   12.3115  -11.9966 C   0  0  0  0  0  0  0  0  0  0  0  0
   -6.5481   11.7662  -10.6896 C   0  0  0  0  0  0  0  0  0  0  0  0
   -7.2522   10.5698  -10.5151 C   0  0  0  0  0  0  0  0  0  0  0  0
   -7.8312    9.9347  -11.5794 C   0  0  0  0  0  0  0  0  0  0  0  0
   -8.4221    8.8040  -11.1512 N   0  0  0  0  0  0  0  0  0  0  0  0
   -8.2555    8.6954   -9.8368 N   0  0  0  0  0  0  0  0  0  0  0  0
   -7.5342    9.7571   -9.4092 C   0  0  0  0  0  0  0  0  0  0  0  0
   -7.2448    9.9895   -7.9485 C   0  0  0  0  0  0  0  0  0  0  0  0
   -5.8736   10.5625   -7.7056 C   0  0  0  0  0  0  0  0  0  0  0  0
   -5.7327   11.8236   -7.1002 C   0  0  0  0  0  0  0  0  0  0  0  0
   -4.4592   12.3747   -6.8887 C   0  0  0  0  0  0  0  0  0  0  0  0
   -4.3202   13.7385   -6.2760 C   0  0  0  0  0  0  0  0  0  0  0  0
   -3.3220   11.6642   -7.3040 C   0  0  0  0  0  0  0  0  0  0  0  0
   -3.4560   10.4034   -7.8934 C   0  0  0  0  0  0  0  0  0  0  0  0
   -4.7251    9.8497   -8.0880 C   0  0  0  0  0  0  0  0  0  0  0  0
   -7.7815   10.4557  -12.8788 C   0  0  0  0  0  0  0  0  0  0  0  0
   -7.0826   11.6619  -13.0827 C   0  0  0  0  0  0  0  0  0  0  0  0
   -6.0327   14.4188  -13.0200 O   0  0  0  0  0  0  0  0  0  0  0  0
   -4.1308   15.7252  -11.2794 H   0  0  0  0  0  0  0  0  0  0  0  0
   -3.2857   15.0163  -12.7197 H   0  0  0  0  0  0  0  0  0  0  0  0
   -2.6418   14.7270  -11.0566 H   0  0  0  0  0  0  0  0  0  0  0  0
   -4.0265   12.8626  -10.9693 H   0  0  0  0  0  0  0  0  0  0  0  0
   -6.0920   12.2644   -9.8464 H   0  0  0  0  0  0  0  0  0  0  0  0
   -8.9472    8.1175  -11.7370 H   0  0  0  0  0  0  0  0  0  0  0  0
   -7.3229    9.0245   -7.4029 H   0  0  0  0  0  0  0  0  0  0  0  0
   -8.0336   10.6585   -7.5426 H   0  0  0  0  0  0  0  0  0  0  0  0
   -6.6123   12.3834   -6.8051 H   0  0  0  0  0  0  0  0  0  0  0  0
   -3.3485   13.8346   -5.7464 H   0  0  0  0  0  0  0  0  0  0  0  0
   -5.1319   13.9207   -5.5399 H   0  0  0  0  0  0  0  0  0  0  0  0
   -4.3750   14.5080   -7.0742 H   0  0  0  0  0  0  0  0  0  0  0  0
   -2.3329   12.0838   -7.1681 H   0  0  0  0  0  0  0  0  0  0  0  0
   -2.5753    9.8563   -8.2040 H   0  0  0  0  0  0  0  0  0  0  0  0
   -4.8154    8.8748   -8.5511 H   0  0  0  0  0  0  0  0  0  0  0  0
   -8.2556    9.9412  -13.7044 H   0  0  0  0  0  0  0  0  0  0  0  0
   -7.0118   12.0701  -14.0833 H   0  0  0  0  0  0  0  0  0  0  0  0
  1  2  1  0
  2  3  1  0
  3  4  1  0
  4  5  2  0
  5  6  1  0
  6  7  2  0
  7  8  1  0
  8  9  1  0
  9 10  2  0
 10 11  1  0
 11 12  1  0
 12 13  2  0
 13 14  1  0
 14 15  1  0
 14 16  2  0
 16 17  1  0
 17 18  2  0
  7 19  1  0
 19 20  2  0
  3 21  2  0
 20  4  1  0
 10  6  1  0
 18 12  1  0
  1 22  1  0
  1 23  1  0
  1 24  1  0
  2 25  1  0
  5 26  1  0
  8 27  1  0
 11 28  1  0
 11 29  1  0
 13 30  1  0
 15 31  1  0
 15 32  1  0
 15 33  1  0
 16 34  1  0
 17 35  1  0
 18 36  1  0
 19 37  1  0
 20 38  1  0
M  END
>  <EmbedRMS>  (1) 
0.04542367851921452

$$$$
7I0
     RDKit          3D

 51 55  0  0  0  0  0  0  0  0999 V2000
   -4.4913   13.7773   -6.1562 C   0  0  0  0  0  0  0  0  0  0  0  0
   -4.5189   12.4325   -6.8393 C   0  0  0  0  0  0  0  0  0  0  0  0
   -3.3335   11.7377   -7.1823 C   0  0  0  0  0  0  0  0  0  0  0  0
   -2.0017   12.3277   -6.9126 C   0  0  0  0  0  0  0  0  0  0  0  0
   -0.9796   11.7874   -6.1597 C   0  0  0  0  0  0  0  0  0  0  0  0
    0.0055   12.7081   -6.0861 N   0  0  0  0  0  0  0  0  0  0  0  0
    1.2399   12.5911   -5.3244 C   0  0  0  0  0  0  0  0  0  0  0  0
   -0.3383   13.8065   -6.7395 N   0  0  0  0  0  0  0  0  0  0  0  0
   -1.5605   13.5970   -7.2596 C   0  0  0  0  0  0  0  0  0  0  0  0
   -3.4320   10.4610   -7.7673 C   0  0  0  0  0  0  0  0  0  0  0  0
   -4.6865    9.8943   -8.0355 C   0  0  0  0  0  0  0  0  0  0  0  0
   -5.8624   10.5911   -7.7143 C   0  0  0  0  0  0  0  0  0  0  0  0
   -7.2230    9.9845   -7.9621 C   0  0  0  0  0  0  0  0  0  0  0  0
   -7.5398    9.7822   -9.4211 C   0  0  0  0  0  0  0  0  0  0  0  0
   -8.2515    8.7185   -9.8605 N   0  0  0  0  0  0  0  0  0  0  0  0
   -8.4095    8.8353  -11.1757 N   0  0  0  0  0  0  0  0  0  0  0  0
   -7.8156    9.9700  -11.5914 C   0  0  0  0  0  0  0  0  0  0  0  0
   -7.2614   10.6061  -10.5172 C   0  0  0  0  0  0  0  0  0  0  0  0
   -6.5723   11.8129  -10.6679 C   0  0  0  0  0  0  0  0  0  0  0  0
   -6.3598   12.3279  -11.9744 C   0  0  0  0  0  0  0  0  0  0  0  0
   -5.5052   13.5312  -12.2216 C   0  0  0  0  0  0  0  0  0  0  0  0
   -5.6330   14.2794  -13.3406 N   0  0  0  0  0  0  0  0  0  0  0  0
   -4.6851   15.2344  -13.2355 C   0  0  0  0  0  0  0  0  0  0  0  0
   -3.9883   15.0607  -12.0665 C   0  0  0  0  0  0  0  0  0  0  0  0
   -4.4891   13.9824  -11.4364 N   0  0  0  0  0  0  0  0  0  0  0  0
   -3.9590   13.4507  -10.1861 C   0  0  0  0  0  0  0  0  0  0  0  0
   -6.9787   11.6711  -13.0760 C   0  0  0  0  0  0  0  0  0  0  0  0
   -7.7231   10.4870  -12.8881 C   0  0  0  0  0  0  0  0  0  0  0  0
   -5.7664   11.8559   -7.1191 C   0  0  0  0  0  0  0  0  0  0  0  0
   -3.6950   13.8096   -5.3833 H   0  0  0  0  0  0  0  0  0  0  0  0
   -4.3191   14.5766   -6.9056 H   0  0  0  0  0  0  0  0  0  0  0  0
   -5.4523   13.9873   -5.6400 H   0  0  0  0  0  0  0  0  0  0  0  0
   -0.9691   10.8207   -5.6726 H   0  0  0  0  0  0  0  0  0  0  0  0
    2.0207   13.2493   -5.7611 H   0  0  0  0  0  0  0  0  0  0  0  0
    1.6047   11.5422   -5.3482 H   0  0  0  0  0  0  0  0  0  0  0  0
    1.0560   12.8914   -4.2717 H   0  0  0  0  0  0  0  0  0  0  0  0
   -2.1029   14.3330   -7.8356 H   0  0  0  0  0  0  0  0  0  0  0  0
   -2.5361    9.9101   -8.0259 H   0  0  0  0  0  0  0  0  0  0  0  0
   -4.7420    8.9126   -8.4891 H   0  0  0  0  0  0  0  0  0  0  0  0
   -8.0257   10.6142   -7.5219 H   0  0  0  0  0  0  0  0  0  0  0  0
   -7.2659    9.0027   -7.4432 H   0  0  0  0  0  0  0  0  0  0  0  0
   -8.9178    8.1453  -11.7719 H   0  0  0  0  0  0  0  0  0  0  0  0
   -6.2338   12.3341   -9.7927 H   0  0  0  0  0  0  0  0  0  0  0  0
   -4.5139   16.0077  -13.9721 H   0  0  0  0  0  0  0  0  0  0  0  0
   -3.1609   15.6633  -11.7136 H   0  0  0  0  0  0  0  0  0  0  0  0
   -3.9410   12.3416  -10.2111 H   0  0  0  0  0  0  0  0  0  0  0  0
   -4.5638   13.8248   -9.3360 H   0  0  0  0  0  0  0  0  0  0  0  0
   -2.9109   13.7877  -10.0437 H   0  0  0  0  0  0  0  0  0  0  0  0
   -6.8589   12.0544  -14.0814 H   0  0  0  0  0  0  0  0  0  0  0  0
   -8.1750    9.9740  -13.7270 H   0  0  0  0  0  0  0  0  0  0  0  0
   -6.6719   12.3942   -6.8649 H   0  0  0  0  0  0  0  0  0  0  0  0
  1  2  1  0
  2  3  2  0
  3  4  1  0
  4  5  2  0
  5  6  1  0
  6  7  1  0
  6  8  1  0
  8  9  2  0
  3 10  1  0
 10 11  2  0
 11 12  1  0
 12 13  1  0
 13 14  1  0
 14 15  2  0
 15 16  1  0
 16 17  1  0
 17 18  2  0
 18 19  1  0
 19 20  2  0
 20 21  1  0
 21 22  2  0
 22 23  1  0
 23 24  2  0
 24 25  1  0
 25 26  1  0
 20 27  1  0
 27 28  2  0
 12 29  2  0
 29  2  1  0
  9  4  1  0
 18 14  1  0
 28 17  1  0
 25 21  1  0
  1 30  1  0
  1 31  1  0
  1 32  1  0
  5 33  1  0
  7 34  1  0
  7 35  1  0
  7 36  1  0
  9 37  1  0
 10 38  1  0
 11 39  1  0
 13 40  1  0
 13 41  1  0
 16 42  1  0
 19 43  1  0
 23 44  1  0
 24 45  1  0
 26 46  1  0
 26 47  1  0
 26 48  1  0
 27 49  1  0
 28 50  1  0
 29 51  1  0
M  END
>  <EmbedRMS>  (2) 
0.03893881777040702

$$$$
7PA
     RDKit          3D

 48 52  0  0  0  0  0  0  0  0999 V2000
    1.2401   12.5943   -5.3318 C   0  0  0  0  0  0  0  0  0  0  0  0
    0.0030   12.7098   -6.0900 N   0  0  0  0  0  0  0  0  0  0  0  0
   -0.9764   11.7835   -6.1664 C   0  0  0  0  0  0  0  0  0  0  0  0
   -2.0078   12.3249   -6.9056 C   0  0  0  0  0  0  0  0  0  0  0  0
   -1.5826   13.6026   -7.2375 C   0  0  0  0  0  0  0  0  0  0  0  0
   -0.3541   13.8130   -6.7289 N   0  0  0  0  0  0  0  0  0  0  0  0
   -3.3259   11.7218   -7.1903 C   0  0  0  0  0  0  0  0  0  0  0  0
   -4.4960   12.4281   -6.8759 C   0  0  0  0  0  0  0  0  0  0  0  0
   -5.7523   11.8655   -7.1205 C   0  0  0  0  0  0  0  0  0  0  0  0
   -5.8626   10.5953   -7.7100 C   0  0  0  0  0  0  0  0  0  0  0  0
   -4.6908    9.8876   -8.0327 C   0  0  0  0  0  0  0  0  0  0  0  0
   -3.4301   10.4433   -7.7648 C   0  0  0  0  0  0  0  0  0  0  0  0
   -7.2266    9.9960   -7.9589 C   0  0  0  0  0  0  0  0  0  0  0  0
   -7.5396    9.7856   -9.4189 C   0  0  0  0  0  0  0  0  0  0  0  0
   -8.2508    8.7207   -9.8574 N   0  0  0  0  0  0  0  0  0  0  0  0
   -8.4083    8.8355  -11.1731 N   0  0  0  0  0  0  0  0  0  0  0  0
   -7.8148    9.9700  -11.5901 C   0  0  0  0  0  0  0  0  0  0  0  0
   -7.2610   10.6072  -10.5164 C   0  0  0  0  0  0  0  0  0  0  0  0
   -6.5724   11.8140  -10.6678 C   0  0  0  0  0  0  0  0  0  0  0  0
   -6.3597   12.3281  -11.9745 C   0  0  0  0  0  0  0  0  0  0  0  0
   -6.9786   11.6707  -13.0758 C   0  0  0  0  0  0  0  0  0  0  0  0
   -7.7227   10.4864  -12.8872 C   0  0  0  0  0  0  0  0  0  0  0  0
   -5.5049   13.5313  -12.2216 C   0  0  0  0  0  0  0  0  0  0  0  0
   -5.6328   14.2793  -13.3407 N   0  0  0  0  0  0  0  0  0  0  0  0
   -4.6850   15.2344  -13.2357 C   0  0  0  0  0  0  0  0  0  0  0  0
   -3.9882   15.0609  -12.0666 C   0  0  0  0  0  0  0  0  0  0  0  0
   -4.4889   13.9827  -11.4363 N   0  0  0  0  0  0  0  0  0  0  0  0
   -3.9587   13.4522  -10.1853 C   0  0  0  0  0  0  0  0  0  0  0  0
    1.6138   11.5490   -5.3689 H   0  0  0  0  0  0  0  0  0  0  0  0
    2.0142   13.2644   -5.7621 H   0  0  0  0  0  0  0  0  0  0  0  0
    1.0558   12.8805   -4.2753 H   0  0  0  0  0  0  0  0  0  0  0  0
   -0.9538   10.8096   -5.6940 H   0  0  0  0  0  0  0  0  0  0  0  0
   -2.1449   14.3430   -7.7895 H   0  0  0  0  0  0  0  0  0  0  0  0
   -4.4365   13.4128   -6.4285 H   0  0  0  0  0  0  0  0  0  0  0  0
   -6.6391   12.4298   -6.8604 H   0  0  0  0  0  0  0  0  0  0  0  0
   -4.7549    8.9042   -8.4814 H   0  0  0  0  0  0  0  0  0  0  0  0
   -2.5375    9.8831   -8.0143 H   0  0  0  0  0  0  0  0  0  0  0  0
   -8.0242   10.6374   -7.5265 H   0  0  0  0  0  0  0  0  0  0  0  0
   -7.2795    9.0186   -7.4327 H   0  0  0  0  0  0  0  0  0  0  0  0
   -8.9164    8.1446  -11.7685 H   0  0  0  0  0  0  0  0  0  0  0  0
   -6.2342   12.3361   -9.7930 H   0  0  0  0  0  0  0  0  0  0  0  0
   -6.8588   12.0536  -14.0814 H   0  0  0  0  0  0  0  0  0  0  0  0
   -8.1745    9.9729  -13.7259 H   0  0  0  0  0  0  0  0  0  0  0  0
   -4.5139   16.0077  -13.9724 H   0  0  0  0  0  0  0  0  0  0  0  0
   -3.1611   15.6639  -11.7138 H   0  0  0  0  0  0  0  0  0  0  0  0
   -4.5605   13.8307   -9.3344 H   0  0  0  0  0  0  0  0  0  0  0  0
   -2.9092   13.7864  -10.0447 H   0  0  0  0  0  0  0  0  0  0  0  0
   -3.9436   12.3429  -10.2078 H   0  0  0  0  0  0  0  0  0  0  0  0
  1  2  1  0
  2  3  1  0
  3  4  2  0
  4  5  1  0
  5  6  2  0
  4  7  1  0
  7  8  2  0
  8  9  1  0
  9 10  2  0
 10 11  1  0
 11 12  2  0
 10 13  1  0
 13 14  1  0
 14 15  2  0
 15 16  1  0
 16 17  1  0
 17 18  2  0
 18 19  1  0
 19 20  2  0
 20 21  1  0
 21 22  2  0
 20 23  1  0
 23 24  2  0
 24 25  1  0
 25 26  2  0
 26 27  1  0
 27 28  1  0
  6  2  1  0
 12  7  1  0
 18 14  1  0
 22 17  1  0
 27 23  1  0
  1 29  1  0
  1 30  1  0
  1 31  1  0
  3 32  1  0
  5 33  1  0
  8 34  1  0
  9 35  1  0
 11 36  1  0
 12 37  1  0
 13 38  1  0
 13 39  1  0
 16 40  1  0
 19 41  1  0
 21 42  1  0
 22 43  1  0
 25 44  1  0
 26 45  1  0
 28 46  1  0
 28 47  1  0
 28 48  1  0
M  END
>  <EmbedRMS>  (3) 
0.038534637639168395

$$$$
